44
Properties=species:S:1:pos:R:3  pbc="F F F"
C  33.49500000 28.48700000 48.05300000
H  33.91200000 27.64000000 47.42500000
H  33.08300000 29.17700000 47.28800000
F  34.92500000 30.70100000 47.15500000
C  35.22300000 30.10000000 48.34900000
C  34.53600000 28.98900000 48.86600000
C  34.97200000 28.55700000 50.04300000
C  36.00600000 29.11100000 50.74400000
C  36.69500000 30.21200000 50.24200000
C  36.25400000 30.65600000 49.04200000
H  34.44200000 27.68500000 50.46100000
H  36.27300000 28.66200000 51.70800000
C  37.80300000 30.80500000 50.99500000
H  37.67900000 31.92100000 51.08900000
H  37.81700000 30.42100000 52.03200000
H  38.74200000 30.57400000 50.48800000
O  36.97300000 31.78800000 48.52600000
C  38.12200000 31.48100000 47.85100000
O  39.03800000 32.35100000 47.99700000
N  38.51800000 30.42400000 47.03500000
H  38.80100000 30.52400000 46.01200000
H  38.83400000 29.77300000 46.28700000
C  32.31100000 27.89800000 48.73900000
H  32.66900000 27.18700000 49.51100000
H  31.85700000 28.76400000 49.30700000
C  30.02000000 27.21400000 48.27300000
C  31.33400000 27.27600000 47.89600000
C  31.59900000 26.72000000 46.70300000
N  30.65400000 26.15100000 45.94700000
C  29.36100000 26.08400000 46.30600000
N  29.03600000 26.62000000 47.48200000
H  32.60200000 26.69900000 46.28200000
H  28.66000000 25.60700000 45.63800000
C  29.53400000 27.77300000 49.59600000
C  28.68700000 28.91100000 49.63600000
C  28.04400000 27.52700000 49.79300000
H  30.15200000 27.52300000 50.45500000
H  28.43400000 29.47200000 48.71500000
H  28.71700000 29.57500000 50.54900000
H  27.43200000 27.18700000 48.93600000
C  27.53300000 27.20200000 51.15500000
F  27.09900000 25.87500000 51.16400000
F  26.41600000 27.96200000 51.42400000
F  28.52800000 27.39600000 52.09000000
