30
Properties=species:S:1:pos:R:3  pbc="F F F"
Cl  38.18100000 30.93600000 47.57800000
C  36.87900000 30.63200000 46.42200000
C  35.64500000 30.11200000 46.81100000
C  34.72300000 29.92100000 45.83400000
C  34.98500000 30.22200000 44.52100000
C  36.19300000 30.73500000 44.11300000
C  37.13100000 30.92900000 45.10700000
H  33.75300000 29.51400000 46.12600000
H  34.23200000 30.06000000 43.76000000
H  36.41600000 30.98000000 43.07100000
C  36.28300000 29.60400000 50.47400000
C  36.48600000 29.88700000 49.12800000
C  35.44900000 29.82000000 48.21500000
N  34.23300000 29.46400000 48.72100000
C  34.05100000 29.19300000 50.02100000
N  35.07500000 29.26600000 50.88000000
H  37.47100000 30.16000000 48.80700000
H  33.04500000 28.91700000 50.33700000
C  37.43900000 29.68900000 51.42800000
F  36.98600000 30.10000000 52.66200000
F  38.05500000 28.47400000 51.44100000
F  38.30600000 30.65900000 50.94000000
C  38.42600000 31.47300000 44.71600000
C  38.78900000 32.79700000 44.58100000
H  38.12000000 33.62900000 44.76100000
N  40.07700000 32.82100000 44.20300000
H  40.64700000 33.69300000 44.01800000
C  40.55300000 31.58200000 44.08900000
H  41.52500000 31.19800000 43.81100000
N  39.54100000 30.76400000 44.40300000
