33
Properties=species:S:1:pos:R:3  pbc="F F F"
C  37.91500000 30.94100000 47.19000000
C  38.29300000 31.64700000 48.31000000
C  37.55100000 31.79000000 49.45600000
N  36.34100000 31.17200000 49.46500000
C  35.94200000 30.47000000 48.37500000
N  36.70900000 30.35500000 47.26300000
H  39.25400000 32.14700000 48.32400000
H  37.88900000 32.35600000 50.31400000
C  39.07500000 30.06700000 43.86600000
C  40.35200000 30.62100000 43.75800000
C  40.79900000 31.31100000 44.88200000
N  40.00600000 31.40400000 45.97300000
C  38.78700000 30.84800000 46.00900000
N  38.25900000 30.14600000 44.95200000
H  38.66000000 29.51300000 43.02800000
H  41.78600000 31.75400000 44.83400000
N  41.12100000 30.48000000 42.58800000
H  42.16700000 30.53600000 42.71000000
H  40.60100000 30.33200000 41.69000000
C  34.67800000 29.76400000 48.25200000
C  33.84400000 30.11100000 47.21900000
N  32.71100000 29.34500000 47.26700000
C  32.85400000 28.52500000 48.33500000
N  34.04500000 28.77600000 48.93400000
H  33.93600000 30.85500000 46.41900000
H  31.89100000 29.37100000 46.62300000
C  31.84000000 27.53500000 48.73500000
N  30.51400000 28.11800000 48.63400000
H  30.56100000 29.13500000 48.37000000
C  29.73800000 27.37800000 47.66600000
H  29.96700000 27.80100000 46.64900000
C  29.88600000 27.96500000 49.94300000
H  30.08500000 28.85300000 50.59700000
