31
Properties=species:S:1:pos:R:3  pbc="F F F"
S  36.23300000 29.25200000 49.47400000
N  33.75600000 28.26500000 49.04300000
C  34.45600000 29.53400000 49.12000000
C  34.32200000 30.22500000 47.78000000
O  33.25900000 29.67800000 47.02600000
C  33.70800000 28.39700000 46.67300000
C  34.17800000 27.58600000 47.84600000
H  32.74800000 28.51800000 48.92300000
H  34.05700000 30.19800000 49.91000000
H  35.24700000 30.01200000 47.19700000
H  34.22700000 31.32500000 47.87300000
H  34.58500000 28.47600000 45.97200000
H  32.91800000 27.87700000 46.10200000
H  35.28400000 27.44600000 47.87400000
O  33.56100000 26.31000000 47.85000000
H  33.09500000 26.13800000 47.00300000
C  37.20300000 30.64000000 48.96000000
C  37.11600000 31.71600000 49.86900000
C  37.83100000 32.88400000 49.58800000
N  38.58200000 32.92000000 48.44000000
C  38.63400000 31.86400000 47.60200000
N  37.96000000 30.74600000 47.85200000
H  36.54600000 31.74000000 50.77600000
H  37.79800000 33.73300000 50.25100000
C  39.43800000 31.87100000 46.35200000
N  38.94100000 32.91000000 45.45500000
H  38.56100000 33.66000000 46.06800000
C  40.09000000 33.38700000 44.69600000
H  39.77300000 33.82100000 43.72500000
C  37.90500000 32.39300000 44.58800000
H  36.91300000 32.65100000 44.98000000
