33
Properties=species:S:1:pos:R:3  pbc="F F F"
C  37.96800000 32.48600000 49.04800000
C  38.78300000 32.48500000 47.92200000
C  38.42500000 31.59000000 46.89500000
N  37.33300000 30.79900000 47.05800000
C  36.57500000 30.84700000 48.18400000
N  36.90700000 31.69100000 49.16200000
H  38.27600000 33.18800000 49.81400000
H  39.65600000 33.09100000 47.74600000
Cl  36.73300000 28.85100000 50.37500000
C  35.40000000 28.99500000 49.28700000
C  35.41600000 29.96500000 48.28800000
C  34.38200000 30.10700000 47.41200000
C  33.27000000 29.27700000 47.49700000
C  33.21500000 28.30900000 48.46700000
Cl  31.87100000 27.20400000 48.67300000
C  34.28500000 28.19600000 49.33600000
H  34.35300000 30.84200000 46.62700000
H  32.43700000 29.37300000 46.81100000
H  34.25700000 27.43600000 50.10800000
C  39.20600000 31.50100000 45.66500000
C  40.54000000 31.09000000 45.63200000
N  41.01000000 31.10500000 44.35700000
C  39.97000000 31.52500000 43.59500000
N  38.91700000 31.75200000 44.38900000
H  41.14500000 30.79400000 46.49300000
H  41.97900000 30.84100000 44.06100000
C  40.01400000 31.69700000 42.11000000
N  38.74200000 32.12500000 41.56400000
H  37.93300000 31.91500000 42.17400000
C  38.74900000 33.57600000 41.32200000
H  37.74100000 33.97300000 41.21700000
C  38.60500000 31.52100000 40.23600000
H  39.46400000 31.95900000 39.65400000
