37
Properties=species:S:1:pos:R:3  pbc="F F F"
C  34.88800000 29.83500000 47.37300000
C  35.50200000 30.02100000 46.12300000
C  36.68200000 30.74100000 46.34000000
N  36.73900000 30.95900000 47.67500000
N  35.67700000 30.41800000 48.25300000
H  35.24700000 29.73000000 45.10000000
H  37.41200000 31.06500000 45.59500000
N  38.45100000 32.65000000 47.63700000
C  39.09600000 33.48700000 48.63600000
C  38.39500000 33.24600000 49.95300000
C  37.14900000 32.47000000 49.52200000
C  37.73700000 31.64700000 48.42000000
H  39.20500000 32.14800000 47.10600000
H  38.92600000 34.55000000 48.36600000
H  40.18300000 33.25400000 48.70000000
H  38.98400000 32.54800000 50.55600000
H  38.13400000 34.18900000 50.47200000
H  36.74600000 31.84300000 50.33300000
H  36.37500000 33.15800000 49.11900000
N  38.65100000 30.67300000 48.97900000
H  38.31400000 30.43300000 49.95300000
H  38.64100000 29.80100000 48.40200000
C  33.38500000 28.24100000 48.56600000
C  33.63600000 29.11900000 47.49200000
C  32.63600000 29.28000000 46.54000000
N  31.48300000 28.58200000 46.70600000
C  31.26500000 27.74900000 47.73900000
N  32.23900000 27.56800000 48.69900000
H  34.15600000 28.10100000 49.32300000
H  32.76200000 29.94100000 45.68600000
C  30.02500000 26.97900000 47.94300000
N  29.08600000 27.72100000 48.75400000
H  28.21300000 27.14400000 48.87700000
C  29.58900000 27.98000000 50.07300000
H  30.29200000 28.83300000 50.14200000
C  28.72300000 28.92700000 48.05700000
H  28.01600000 28.63400000 47.23700000
