33
Properties=species:S:1:pos:R:3  pbc="F F F"
C  38.93900000 30.91300000 45.74400000
C  40.12700000 31.55300000 45.98700000
C  40.94300000 31.47600000 44.87400000
N  40.19400000 30.77300000 43.97600000
N  39.02700000 30.44200000 44.47500000
H  40.41200000 32.05800000 46.91800000
H  41.93900000 31.85600000 44.69000000
C  37.80100000 30.76000000 46.64700000
C  38.02600000 30.99900000 48.02900000
C  36.94600000 30.85400000 48.89500000
N  35.74000000 30.49200000 48.36400000
C  35.55800000 30.27100000 47.04400000
N  36.59500000 30.40800000 46.19600000
H  39.02100000 31.28700000 48.38500000
H  34.60700000 29.98800000 46.64500000
C  37.16000000 31.10100000 50.35300000
F  36.63800000 32.34800000 50.59100000
F  36.48100000 30.18700000 51.14200000
F  38.50600000 31.10500000 50.68400000
C  40.55600000 30.39100000 42.61400000
C  40.14500000 31.15400000 41.51200000
C  40.50300000 30.78500000 40.26000000
C  41.29500000 29.61800000 40.09200000
S  41.51600000 29.05000000 41.85200000
H  39.53600000 32.05600000 41.59000000
H  40.30500000 31.21300000 39.29600000
C  41.90800000 28.84800000 39.00300000
N  42.92800000 29.55800000 38.28600000
H  42.58100000 29.75800000 37.33000000
C  43.24800000 30.76600000 39.02000000
H  43.44700000 31.59100000 38.32400000
C  44.12600000 28.74300000 38.15900000
H  44.67800000 29.08400000 37.27900000
