27
Properties=species:S:1:pos:R:3  pbc="F F F"
Cl  38.51600000 30.59400000 46.80700000
C  38.89600000 32.06000000 47.70100000
C  38.35900000 32.24500000 48.94400000
C  38.69900000 33.41500000 49.58600000
C  39.54400000 34.32300000 48.95600000
C  40.05900000 34.10800000 47.72300000
C  39.73000000 32.95100000 47.07400000
H  38.33100000 33.66500000 50.57200000
H  39.81100000 35.25100000 49.47000000
H  40.72000000 34.85700000 47.27200000
C  37.92000000 30.46700000 50.64400000
C  37.47100000 31.28000000 49.59000000
C  36.15800000 31.12900000 49.19000000
N  35.38500000 30.21800000 49.82800000
C  35.83900000 29.45700000 50.82800000
N  37.12300000 29.57500000 51.25200000
H  38.94700000 30.59900000 50.94200000
H  35.80200000 31.75000000 48.37800000
H  35.16100000 28.74900000 51.29100000
O  40.26000000 32.72700000 45.79900000
C  39.82700000 33.38800000 44.65500000
N  39.36300000 32.37500000 43.72100000
H  38.44800000 31.97800000 43.98000000
C  39.22800000 32.94900000 42.40000000
H  40.21700000 33.05500000 41.93000000
C  40.33700000 31.30600000 43.71800000
H  41.29000000 31.72900000 43.31300000
