28
Properties=species:S:1:pos:R:3  pbc="F F F"
C  36.93900000 29.19800000 50.68300000
H  37.49700000 28.35600000 51.13000000
H  36.81600000 28.97000000 49.60500000
C  37.71400000 30.45600000 50.88500000
H  37.16900000 31.20000000 51.51800000
H  38.66500000 30.26900000 51.43500000
C  38.08400000 31.14500000 49.64900000
C  38.54000000 32.44700000 49.62500000
C  38.87100000 33.02300000 48.38900000
N  38.72100000 32.25600000 47.26000000
C  38.26400000 30.96800000 47.33600000
N  37.94800000 30.42200000 48.52800000
H  38.63800000 33.00500000 50.54900000
H  39.23100000 34.04000000 48.32900000
H  38.15800000 30.38700000 46.41300000
O  35.68400000 29.35800000 51.26400000
O  34.64700000 30.96400000 49.48700000
P  34.47900000 29.57100000 50.08500000
O  32.94500000 29.52100000 50.74900000
H  33.03800000 29.60100000 51.74800000
O  34.61000000 28.39100000 48.89000000
C  33.43100000 27.70800000 48.67100000
N  32.44300000 28.52400000 47.98300000
H  32.35100000 29.43600000 48.48500000
C  31.15400000 27.87100000 47.96400000
H  30.84400000 27.78600000 46.89500000
C  32.93600000 28.78100000 46.64800000
H  33.30200000 27.83200000 46.18700000
