34
Properties=species:S:1:pos:R:3  pbc="F F F"
C  35.85300000 29.14000000 49.80300000
C  34.80200000 29.61800000 50.55300000
C  33.62800000 29.04700000 50.04000000
C  34.04500000 28.24800000 49.00000000
O  35.35300000 28.33500000 48.89800000
H  34.78300000 30.29800000 51.38600000
H  32.61700000 29.19000000 50.37300000
C  37.22800000 29.52800000 50.06100000
O  37.85900000 28.96200000 50.96600000
C  37.78100000 30.56400000 49.23300000
C  38.11700000 31.75600000 49.85600000
C  38.65400000 32.78600000 49.07600000
N  38.82100000 32.56000000 47.73000000
C  38.48600000 31.39600000 47.16500000
N  37.96900000 30.40400000 47.90300000
H  38.00000000 31.96600000 50.90800000
H  38.93300000 33.72300000 49.49500000
H  38.61900000 31.22300000 46.10100000
C  33.18200000 27.43100000 48.14600000
O  31.93200000 27.40800000 48.40000000
C  33.76400000 26.64100000 47.01000000
C  33.75500000 25.10500000 47.36600000
C  32.94100000 25.68400000 46.26800000
H  34.82100000 26.91500000 46.80000000
H  34.66300000 24.53500000 47.17300000
H  33.21700000 24.80100000 48.26300000
H  31.84900000 25.77400000 46.40900000
C  33.33800000 25.27400000 44.87200000
N  34.71900000 25.53900000 44.55600000
H  35.23000000 26.02200000 45.32900000
C  34.72900000 26.41600000 43.38900000
H  35.28700000 25.99200000 42.53200000
C  35.39400000 24.30400000 44.13100000
H  34.61600000 23.56000000 43.85000000
