32
Properties=species:S:1:pos:R:3  pbc="F F F"
C  39.89200000 33.41000000 46.48300000
C  39.38500000 32.82500000 47.63500000
C  38.32500000 31.95900000 47.54300000
N  37.81400000 31.71200000 46.30100000
C  38.35300000 32.31900000 45.18300000
N  39.36200000 33.13900000 45.29800000
H  40.72000000 34.07400000 46.57100000
H  39.71900000 32.95100000 48.63400000
C  37.58000000 31.73300000 44.18400000
N  36.83300000 31.16000000 43.21100000
C  35.73300000 31.07500000 42.79600000
N  36.59300000 30.32700000 42.03700000
C  37.92200000 30.22600000 42.26700000
C  38.79900000 29.43200000 41.41400000
C  40.16300000 29.37400000 41.66300000
H  40.70600000 28.75000000 40.97900000
C  40.75500000 30.04500000 42.70100000
H  41.79400000 30.00600000 42.88300000
C  39.91400000 30.78400000 43.49900000
C  38.49600000 30.94000000 43.37500000
C  37.69200000 31.25400000 48.67900000
C  38.27800000 31.20600000 49.90400000
C  37.69900000 30.56000000 50.99200000
N  36.49400000 29.95600000 50.79900000
C  35.94500000 30.01700000 49.59800000
N  36.49100000 30.64100000 48.52300000
H  39.23800000 31.69500000 50.00300000
H  38.13300000 30.51700000 51.96600000
C  34.62000000 29.37200000 49.36400000
F  34.07000000 29.91500000 48.20500000
F  34.74300000 27.99900000 49.27100000
F  33.74600000 29.63000000 50.37900000
