32
Properties=species:S:1:pos:R:3  pbc="F F F"
C  38.17100000 31.84200000 47.41800000
C  38.75700000 32.64200000 48.35500000
C  38.31700000 32.67400000 49.67700000
C  37.20000000 31.81600000 50.02900000
C  36.66000000 31.04000000 49.04600000
C  37.08900000 31.02000000 47.78100000
H  39.60100000 33.30100000 48.12700000
H  38.81400000 33.32800000 50.39100000
H  36.96500000 31.93700000 51.07100000
H  35.87800000 30.48000000 49.53100000
C  40.00700000 31.23600000 45.91500000
C  38.76200000 31.90100000 46.09700000
C  38.27600000 32.51400000 44.97100000
N  38.95000000 32.46500000 43.81600000
C  40.09700000 31.84700000 43.66200000
N  40.61700000 31.23700000 44.71400000
H  40.47200000 30.71900000 46.75700000
H  37.31800000 33.01300000 45.15400000
H  40.56000000 31.86800000 42.68300000
C  35.04800000 30.08100000 47.11200000
O  34.55300000 30.58800000 48.18800000
N  36.48900000 30.23600000 46.82800000
H  36.92600000 29.79100000 46.00500000
O  34.24600000 29.38000000 46.19800000
C  32.92400000 29.64000000 46.00600000
O  32.60400000 30.82300000 45.68900000
N  31.55500000 29.90900000 45.80700000
C  30.78200000 30.84000000 45.03000000
C  29.67700000 29.96500000 44.46200000
C  29.48400000 28.83800000 45.44500000
C  30.50800000 29.13300000 46.49600000
H  30.93300000 28.22100000 46.96100000
