27
Properties=species:S:1:pos:R:3  pbc="F F F"
Cl  36.69100000 31.49800000 49.49500000
C  36.99600000 31.34000000 47.78800000
C  36.19100000 30.42600000 47.16300000
C  36.35500000 30.22000000 45.78100000
C  37.28600000 30.90500000 45.06700000
C  38.08900000 31.82200000 45.71400000
Cl  39.29300000 32.71800000 44.82900000
C  37.93400000 32.02600000 47.05700000
H  35.76800000 29.52100000 45.20200000
H  37.44500000 30.77700000 44.00600000
C  35.41300000 28.83400000 48.88200000
C  35.12900000 29.58000000 47.72900000
C  33.84200000 29.47500000 47.18100000
N  32.94200000 28.66100000 47.79100000
C  33.25300000 27.95600000 48.90400000
N  34.49300000 28.04700000 49.44500000
H  36.41100000 28.92700000 49.29100000
H  33.67200000 30.06000000 46.30600000
H  32.46900000 27.33300000 49.31900000
C  38.75000000 32.98200000 47.79900000
C  38.51800000 33.14500000 49.14600000
H  37.79100000 32.66400000 49.81000000
C  39.41400000 34.09600000 49.60800000
H  39.48800000 34.44900000 50.62800000
N  40.15800000 34.48200000 48.54400000
H  40.92900000 35.18700000 48.53800000
N  39.76300000 33.81400000 47.45000000
