45
Properties=species:S:1:pos:R:3  pbc="F F F"
C  31.47200000 28.13100000 47.24900000
C  31.84900000 27.87400000 48.57900000
C  33.09600000 28.03300000 49.09100000
C  34.10400000 28.47200000 48.31300000
C  33.75100000 28.72200000 47.03500000
N  32.52100000 28.55400000 46.57200000
H  31.07300000 27.50700000 49.28300000
H  33.27500000 27.79500000 50.16400000
H  35.11100000 28.62200000 48.64600000
C  29.30900000 29.08600000 47.17300000
C  30.09500000 27.93300000 46.82700000
C  29.43900000 26.91600000 46.19100000
N  28.09900000 27.08500000 45.94200000
C  27.38500000 28.16100000 46.26900000
N  28.01200000 29.16200000 46.89200000
N  26.03200000 28.13200000 45.91700000
H  29.68900000 29.96300000 47.67700000
H  25.90800000 28.11600000 44.88500000
H  25.23100000 28.12500000 46.55900000
C  30.18100000 25.72300000 45.81800000
F  30.71700000 25.18000000 46.89600000
F  29.42700000 24.76700000 45.15500000
F  31.24400000 26.03600000 44.92600000
F  35.75200000 30.49500000 47.75000000
C  35.74000000 30.10400000 46.43400000
C  34.74900000 29.21300000 46.06100000
C  34.78200000 28.84500000 44.73700000
C  35.73200000 29.33200000 43.86400000
C  36.69300000 30.21800000 44.29800000
C  36.70400000 30.61400000 45.60000000
H  34.02500000 28.14400000 44.38500000
H  35.72700000 29.01600000 42.81500000
H  37.45900000 30.62900000 43.65600000
C  38.74400000 32.15300000 45.47000000
C  37.69700000 31.55500000 46.13700000
C  37.48300000 31.82000000 47.49200000
H  36.67600000 31.38600000 48.09300000
C  38.31500000 32.68000000 48.16700000
N  38.41500000 33.15600000 49.41800000
H  37.75300000 32.88900000 50.19000000
C  39.45500000 34.00400000 49.55200000
H  39.76300000 34.53000000 50.45700000
C  40.06000000 34.07900000 48.31500000
C  39.34500000 33.25900000 47.48200000
C  39.57900000 33.01300000 46.14100000
