42
Properties=species:S:1:pos:R:3  pbc="F F F"
Cl  34.53200000 27.64700000 49.39600000
C  33.78700000 28.58900000 48.14000000
C  34.28700000 29.83600000 47.84800000
C  33.71200000 30.60600000 46.85300000
C  32.63200000 30.14900000 46.13400000
C  32.12100000 28.89600000 46.42100000
Cl  30.73900000 28.21000000 45.56300000
C  32.72200000 28.16200000 47.41700000
H  34.09900000 31.59000000 46.61500000
O  33.25000000 29.80500000 43.28200000
C  32.28500000 30.48400000 43.70100000
C  31.97300000 30.90900000 45.06700000
C  30.45000000 30.79300000 45.08700000
H  30.24300000 29.70500000 45.01400000
C  30.10800000 31.45600000 43.76100000
H  29.12700000 31.13300000 43.36500000
N  31.22300000 31.02400000 42.91000000
H  31.19700000 31.12000000 41.85400000
C  36.61200000 30.62000000 50.56800000
C  37.62200000 31.34000000 49.92400000
C  37.47900000 31.54000000 48.56000000
N  36.38000000 31.03500000 47.92000000
C  35.43500000 30.34600000 48.59700000
N  35.55900000 30.14900000 49.89500000
H  36.71600000 30.45900000 51.63200000
H  38.48600000 31.73800000 50.42000000
C  38.47100000 32.28200000 47.76200000
C  39.16300000 33.37000000 48.22900000
N  40.00800000 33.85000000 47.28000000
C  39.84500000 33.06300000 46.21800000
N  38.91800000 32.12600000 46.52300000
C  40.58700000 31.81100000 44.25900000
O  40.18200000 30.77100000 44.80000000
N  40.45000000 33.07200000 44.93600000
H  39.13300000 33.87800000 49.20700000
H  40.66400000 34.64800000 47.30400000
H  41.04000000 31.66400000 43.25100000
H  40.80500000 33.89700000 44.43500000
C  32.17000000 26.80400000 47.73000000
F  33.19600000 25.87100000 47.79300000
F  31.37000000 26.35300000 46.67700000
F  31.37100000 26.80200000 48.85300000
