23
Properties=species:S:1:pos:R:3  pbc="F F F"
C  35.78800000 30.09800000 49.20500000
C  37.08400000 30.53800000 49.05400000
C  37.90100000 30.40500000 50.16100000
H  38.93500000 30.74300000 50.08000000
C  37.37900000 29.86200000 51.29400000
H  38.08000000 29.79400000 52.11400000
C  36.08200000 29.42000000 51.44900000
C  35.25800000 29.54800000 50.35300000
C  39.10000000 32.58100000 46.79500000
C  38.60000000 32.27100000 45.51300000
C  37.55900000 31.34700000 45.43600000
N  37.09000000 30.80600000 46.58700000
C  37.57400000 31.11000000 47.80200000
N  38.57900000 32.00100000 47.87900000
H  39.89500000 33.29000000 46.81900000
H  38.94400000 32.67900000 44.57200000
H  37.08300000 31.01900000 44.52700000
N  33.95400000 30.66600000 47.33800000
C  34.83500000 30.18700000 48.12700000
N  34.51800000 29.16500000 47.21300000
H  33.57000000 30.05000000 46.56000000
H  35.16100000 28.34000000 47.23800000
H  34.72400000 28.23600000 46.80000000
