43
Properties=species:S:1:pos:R:3  pbc="F F F"
C  35.17800000 30.05600000 49.46400000
C  36.13200000 31.16400000 49.21300000
C  37.57800000 30.80000000 49.55200000
C  37.67700000 30.48800000 51.02200000
C  36.58400000 29.54200000 51.48200000
C  35.80700000 28.97900000 50.32000000
H  34.23600000 30.39300000 49.98800000
H  35.89400000 31.93800000 50.02800000
H  36.14300000 31.71300000 48.31400000
H  37.77700000 29.85400000 49.00700000
H  37.58200000 31.43800000 51.57600000
H  38.68700000 30.07700000 51.24200000
H  35.89600000 30.03200000 52.21500000
H  37.04500000 28.71000000 52.03200000
H  36.49800000 28.40400000 49.69200000
H  34.98000000 28.37800000 50.74900000
C  38.53300000 31.80500000 49.06100000
C  38.46700000 33.16700000 49.68600000
C  39.41400000 33.89200000 48.70400000
O  39.04700000 33.42100000 47.46300000
C  38.48300000 32.15600000 47.62100000
H  39.56000000 31.42700000 49.29300000
H  37.45700000 33.61400000 49.62100000
H  38.88600000 33.16900000 50.69400000
H  40.45100000 33.59900000 48.94000000
H  39.20300000 34.96400000 48.82800000
H  37.51600000 32.10900000 47.12900000
C  39.38700000 31.18500000 46.89200000
N  39.52700000 31.46600000 45.48900000
H  38.91400000 32.26100000 45.20100000
C  39.11800000 30.22400000 44.81200000
H  38.04800000 30.20700000 44.58900000
C  40.91800000 31.64600000 45.12200000
H  41.09900000 31.23600000 44.10600000
C  34.70600000 29.40500000 48.22200000
C  35.00800000 30.07900000 47.03800000
C  34.61000000 29.51100000 45.84600000
N  33.92900000 28.30200000 45.86800000
C  33.65300000 27.68000000 47.04200000
N  34.04400000 28.23900000 48.18000000
H  35.49700000 30.98800000 46.73900000
H  34.71100000 29.81000000 44.81800000
H  33.12600000 26.74400000 47.07200000
