22
Properties=species:S:1:pos:R:3  pbc="F F F"
C  35.21000000 30.05400000 49.32900000
C  35.22200000 30.29000000 47.94200000
C  34.32500000 29.56200000 47.15800000
N  33.49300000 28.67100000 47.75800000
C  33.50900000 28.47000000 49.09500000
N  34.36300000 29.15600000 49.88900000
H  35.91500000 31.00900000 47.58400000
H  32.81000000 27.74000000 49.48400000
O  36.02600000 30.68300000 50.24700000
O  37.73400000 28.60300000 50.25200000
P  37.53300000 30.01500000 50.74000000
O  38.73700000 31.04300000 50.09800000
H  38.69500000 31.90700000 50.57300000
O  37.62600000 29.96400000 52.42100000
H  38.59000000 29.89100000 52.68700000
C  34.32000000 29.79200000 45.71100000
N  33.82200000 28.69700000 44.93800000
H  33.55300000 27.86600000 45.51200000
C  32.67200000 29.11000000 44.13100000
H  32.46100000 28.37700000 43.33900000
C  34.85900000 28.30000000 44.00300000
H  35.53400000 27.53900000 44.47500000
