33
Properties=species:S:1:pos:R:3  pbc="F F F"
C  37.64800000 31.20900000 48.16900000
C  38.55400000 32.18200000 48.06500000
C  38.96100000 32.60700000 46.86500000
C  38.41000000 32.00200000 45.75200000
S  37.26500000 30.77900000 46.51000000
H  38.95000000 32.61800000 48.99300000
H  39.68200000 33.38000000 46.63500000
Cl  41.16200000 31.20200000 44.69800000
C  39.79700000 31.82600000 43.78400000
C  38.57900000 32.16600000 44.33500000
C  37.51300000 32.64600000 43.67500000
C  37.61800000 32.82700000 42.29200000
C  38.80000000 32.51100000 41.66800000
Cl  39.00800000 32.71100000 39.93900000
C  39.88300000 32.01500000 42.40000000
H  36.56600000 32.90400000 44.14100000
H  36.82700000 33.20200000 41.67900000
H  40.81600000 31.76700000 41.90200000
C  37.03600000 29.80900000 51.60500000
C  37.72200000 30.44000000 50.54600000
C  37.03700000 30.56900000 49.34000000
N  35.77600000 30.09700000 49.23500000
C  35.15900000 29.50000000 50.27300000
N  35.78700000 29.36000000 51.44300000
H  37.56000000 29.70200000 52.55200000
H  38.73400000 30.81700000 50.63800000
C  33.76100000 29.01600000 50.03700000
N  33.61600000 28.28300000 48.82000000
H  34.29400000 27.50200000 48.73800000
C  33.66300000 29.14100000 47.63200000
H  34.57700000 29.72900000 47.56300000
C  32.29100000 27.68600000 48.80600000
H  32.29800000 26.67100000 49.26300000
