33
Properties=species:S:1:pos:R:3  pbc="F F F"
C  37.47200000 31.42100000 46.04100000
C  36.10300000 30.86800000 46.02100000
C  37.08800000 30.06700000 46.70300000
H  37.87200000 32.09700000 46.79500000
H  35.74500000 30.56300000 44.98200000
H  35.39200000 31.60000000 46.43800000
H  37.79100000 29.33500000 46.20700000
Cl  34.80900000 28.49400000 48.15900000
C  36.07800000 29.36300000 48.98500000
C  37.02600000 29.93300000 48.15000000
C  38.06600000 30.55100000 48.76800000
C  38.18500000 30.61300000 50.17400000
C  37.20800000 30.02400000 50.97400000
Cl  37.25100000 29.98700000 52.72800000
C  36.14000000 29.39200000 50.34000000
H  38.90300000 31.05400000 48.30500000
H  38.99600000 31.09400000 50.69800000
H  35.33400000 28.91000000 50.87200000
C  37.64200000 31.17000000 43.49900000
C  38.28300000 31.33900000 44.78500000
C  39.68500000 31.38400000 44.82200000
N  40.37300000 31.26500000 43.64400000
C  39.72500000 31.10900000 42.46700000
N  38.38400000 31.06100000 42.38800000
H  36.55000000 31.14200000 43.52100000
H  40.19100000 31.51000000 45.76100000
C  40.51100000 30.98200000 41.21000000
N  39.70700000 30.72400000 40.04700000
H  38.71900000 30.65000000 40.38200000
C  40.01400000 29.41300000 39.46200000
H  39.24600000 28.65100000 39.71000000
C  39.72600000 31.76800000 39.06300000
H  38.72200000 32.26400000 38.93100000
