33
Properties=species:S:1:pos:R:3  pbc="F F F"
N  39.77300000 33.08900000 45.84400000
C  38.47500000 32.48600000 45.91200000
C  37.87700000 32.35600000 44.53700000
N  38.77900000 31.53400000 43.74200000
C  39.98600000 32.36400000 43.54200000
C  40.65600000 32.44300000 44.90100000
H  39.65800000 34.05900000 45.53400000
H  37.84800000 33.09200000 46.57500000
H  37.84700000 33.37200000 44.10600000
H  36.85600000 31.92600000 44.58500000
H  38.36700000 31.27100000 42.82400000
H  39.71800000 33.40500000 43.25100000
H  40.65100000 31.92600000 42.79400000
H  41.52900000 33.13200000 44.75200000
N  41.06100000 31.12800000 45.30900000
H  42.09800000 31.15100000 45.44100000
H  40.85400000 30.42100000 44.57000000
S  38.56400000 30.77900000 46.57900000
C  37.75000000 30.71900000 50.56700000
C  38.45600000 30.77200000 49.36500000
C  37.78300000 30.72000000 48.17400000
N  36.41500000 30.61800000 48.24200000
C  35.76100000 30.56900000 49.38600000
N  36.42800000 30.62000000 50.56400000
H  38.40000000 30.76900000 51.42600000
H  39.54200000 30.85300000 49.27200000
C  34.26800000 30.45700000 49.38400000
N  33.77300000 29.20200000 48.94700000
H  32.80300000 29.04600000 49.33900000
C  33.59000000 29.24100000 47.50900000
H  34.56300000 28.96800000 47.00700000
C  34.56400000 28.06800000 49.36000000
H  34.65000000 28.07900000 50.46600000
