36
Properties=species:S:1:pos:R:3  pbc="F F F"
C  37.97300000 31.56300000 45.28300000
O  36.89400000 30.92200000 45.45500000
N  38.46400000 32.44000000 46.30100000
H  39.22000000 33.11000000 46.12800000
C  38.74000000 31.41600000 44.03500000
C  39.99800000 30.88000000 44.10800000
C  40.72100000 30.74000000 42.93200000
C  40.13300000 31.14600000 41.77000000
C  38.84400000 31.69800000 41.67700000
N  38.21500000 31.79900000 42.85700000
H  40.45300000 30.56400000 45.03000000
H  41.72000000 30.32200000 42.93700000
H  40.70500000 31.03200000 40.86300000
C  38.28000000 32.11200000 40.37900000
N  37.19300000 33.04200000 40.47300000
H  37.13900000 33.38500000 41.45900000
C  37.37000000 34.21100000 39.62900000
H  38.41100000 34.54700000 39.67700000
C  35.91300000 32.38700000 40.16500000
H  35.26900000 32.32100000 41.04700000
C  38.44800000 31.51500000 48.61800000
C  38.74800000 32.95100000 48.73600000
C  37.85200000 32.35900000 47.61400000
H  39.36400000 30.90700000 48.38100000
H  38.22200000 33.55600000 49.50900000
H  39.71800000 33.35400000 48.44500000
H  36.77800000 32.63400000 47.69300000
C  35.57700000 29.71500000 50.08700000
C  36.01500000 29.47600000 51.41600000
C  37.32400000 29.96200000 51.78800000
N  38.06900000 30.61800000 50.86100000
C  37.58400000 30.81200000 49.60300000
N  36.34300000 30.37400000 49.18700000
H  34.59100000 29.32900000 49.86800000
H  35.39500000 28.95500000 52.11100000
H  37.66400000 29.78300000 52.79900000
