28
Properties=species:S:1:pos:R:3  pbc="F F F"
C  37.20800000 31.36800000 49.25800000
C  37.37400000 32.63100000 49.80800000
C  38.33200000 33.42700000 49.14700000
N  39.01700000 32.95200000 48.05600000
C  38.81400000 31.70800000 47.56000000
N  37.88700000 30.90400000 48.18100000
H  36.82800000 32.97000000 50.65400000
H  38.50600000 34.42100000 49.53000000
C  36.17900000 30.50000000 49.91400000
C  35.01300000 30.00100000 49.19000000
C  36.17600000 29.06700000 49.34600000
H  36.17000000 30.55100000 51.03000000
H  34.09900000 29.93000000 49.84200000
H  36.80600000 28.82300000 48.49200000
H  35.97900000 28.26900000 50.11000000
O  34.75800000 30.55200000 47.94100000
C  33.99400000 30.08100000 46.92600000
O  34.23100000 28.99000000 46.36500000
N  32.98100000 31.00900000 46.67400000
H  32.12600000 31.18600000 47.22100000
H  32.85400000 31.71700000 45.90200000
C  39.56600000 31.21600000 46.37900000
N  39.26500000 31.90600000 45.17300000
H  39.45600000 31.25800000 44.37500000
C  37.86500000 32.25800000 45.03600000
H  37.29700000 31.41800000 44.54400000
C  40.12900000 33.05100000 44.98500000
H  39.69200000 33.64400000 44.14800000
