21
Properties=species:S:1:pos:R:3  pbc="F F F"
C  38.07700000 32.15100000 48.46600000
C  38.46600000 32.97600000 49.53300000
C  39.37200000 33.98000000 49.28100000
N  39.84700000 34.12200000 48.01000000
C  39.45700000 33.31600000 47.00500000
N  38.57300000 32.32900000 47.22500000
C  40.67200000 32.33000000 45.20700000
O  40.85800000 31.22700000 45.79200000
N  39.97800000 33.49900000 45.68600000
H  38.13500000 32.91900000 50.54100000
H  39.72400000 34.66000000 50.04900000
H  41.09900000 32.40100000 44.19300000
H  39.84500000 34.38100000 45.18300000
O  37.15700000 31.17200000 48.84000000
C  37.61500000 29.93800000 49.35600000
N  36.81600000 29.45300000 50.43600000
H  36.96900000 28.41600000 50.47900000
C  35.41500000 29.69700000 50.21600000
H  35.25900000 30.69900000 49.73700000
C  37.28200000 30.02200000 51.67400000
H  36.52000000 30.69000000 52.09800000
