41
Properties=species:S:1:pos:R:3  pbc="F F F"
C  38.24900000 31.04200000 47.53000000
C  37.26400000 29.90500000 47.73200000
O  36.16300000 30.21800000 46.91500000
C  36.79300000 30.74200000 45.81100000
C  37.60000000 31.92400000 46.59700000
H  39.13100000 30.55700000 46.94600000
H  37.68600000 28.95700000 47.37200000
H  36.13400000 31.25800000 45.16100000
H  37.40500000 30.02000000 45.39200000
H  36.69400000 32.46300000 46.65600000
C  37.24100000 29.63700000 51.47600000
C  37.77900000 29.81300000 50.16500000
C  36.82800000 29.73700000 49.12400000
N  35.48000000 29.50400000 49.39700000
C  35.06300000 29.35000000 50.66800000
N  35.92800000 29.41500000 51.69400000
H  37.89400000 29.68100000 52.33700000
H  38.81500000 29.97400000 50.04600000
H  33.99700000 29.17800000 50.70200000
O  38.80900000 31.52900000 48.63700000
H  38.76100000 32.49600000 48.78000000
O  38.51800000 32.47000000 45.74800000
C  39.25400000 31.38100000 43.74400000
C  39.45400000 31.80300000 45.16700000
C  40.60600000 32.83200000 45.02100000
O  40.22200000 33.51600000 43.85700000
C  39.69500000 32.58700000 42.97600000
H  38.21200000 31.09600000 43.57800000
H  39.96500000 30.97000000 45.71100000
H  40.62600000 33.51300000 45.87500000
H  41.55300000 32.30800000 44.82500000
H  40.54100000 32.32600000 42.27300000
H  38.91500000 32.99200000 42.32200000
O  40.15700000 30.30400000 43.55000000
C  39.54200000 29.15100000 43.13900000
N  40.55100000 28.26500000 42.59100000
H  41.01400000 27.75300000 43.38000000
C  41.57800000 28.98600000 41.88100000
H  41.35600000 29.13500000 40.80600000
C  39.91000000 27.26500000 41.78300000
H  39.98300000 27.54600000 40.71500000
