22
Properties=species:S:1:pos:R:3  pbc="F F F"
O  35.23400000 29.75900000 46.43300000
P  34.24800000 29.37300000 47.50700000
O  34.44400000 27.77000000 48.00800000
H  35.35900000 27.49200000 47.75100000
O  34.42200000 30.33500000 48.92400000
C  35.59700000 30.34000000 49.67000000
C  35.89000000 29.49000000 50.73500000
C  37.12600000 29.63900000 51.37300000
N  37.97500000 30.59900000 50.92400000
C  37.65500000 31.40600000 49.88600000
N  36.46800000 31.27800000 49.25800000
H  35.14400000 28.78000000 50.99200000
H  37.34900000 28.97700000 52.19900000
H  38.37300000 32.17100000 49.55400000
O  32.70000000 29.60900000 46.86100000
C  32.64200000 30.65700000 45.98100000
N  31.27500000 30.67600000 45.43600000
H  30.84600000 31.60200000 45.72900000
C  31.26500000 30.52600000 44.01100000
H  30.96100000 29.48900000 43.75700000
C  30.51200000 29.61700000 46.03800000
H  31.11200000 28.73600000 46.34200000
