35
Properties=species:S:1:pos:R:3  pbc="F F F"
C  33.12600000 27.31000000 45.86200000
C  33.92300000 27.46500000 47.17700000
O  33.81300000 26.23700000 47.75100000
C  34.06700000 25.34900000 46.72400000
C  33.51100000 25.91800000 45.46300000
H  33.49200000 28.04900000 45.13000000
H  34.95000000 27.70800000 46.81800000
H  35.15700000 25.17900000 46.71700000
H  33.56000000 24.39700000 46.97800000
H  32.60700000 25.35300000 45.15400000
O  31.77900000 27.50100000 46.08900000
H  31.42300000 26.88100000 46.75100000
O  33.32300000 28.50600000 47.82300000
O  35.35500000 29.81600000 46.76700000
P  34.09600000 29.98500000 47.60700000
O  33.10500000 31.03000000 46.71400000
H  33.34400000 31.08000000 45.77400000
O  34.40600000 30.62600000 49.15600000
C  35.63100000 30.50000000 49.77500000
C  35.96900000 29.48200000 50.69500000
C  37.24900000 29.49200000 51.23500000
N  38.11400000 30.48100000 50.85000000
C  37.75800000 31.45000000 49.96200000
N  36.50900000 31.45500000 49.42300000
H  35.20500000 28.76400000 50.91500000
H  37.50900000 28.72700000 51.92800000
H  38.50800000 32.18900000 49.71900000
O  34.45500000 25.96300000 44.45100000
C  34.62200000 24.75800000 43.79300000
N  36.00100000 24.59800000 43.36600000
H  36.07000000 23.95300000 42.54800000
C  36.60800000 25.84900000 43.00000000
H  37.09100000 26.37600000 43.86000000
C  36.79600000 24.00800000 44.43500000
H  36.52600000 22.95200000 44.54600000
