25
Properties=species:S:1:pos:R:3  pbc="F F F"
O  35.70000000 30.65000000 50.14500000
C  35.02700000 29.44200000 50.25500000
H  34.34500000 29.49700000 51.12400000
H  35.70300000 28.57800000 50.41400000
C  34.19800000 29.14800000 49.05300000
C  34.42400000 29.91800000 47.90900000
C  33.65100000 29.64900000 46.77200000
N  32.72300000 28.65200000 46.85400000
C  32.53700000 27.93500000 47.97700000
N  33.26700000 28.17600000 49.07600000
H  35.17100000 30.71100000 47.86400000
H  33.82500000 30.24100000 45.89500000
H  31.77800000 27.15900000 47.96000000
O  37.79100000 29.08800000 49.89400000
P  37.31000000 30.35600000 50.58200000
O  37.41700000 30.06200000 52.25000000
H  38.26500000 29.57200000 52.42800000
O  38.31200000 31.61400000 50.10300000
C  37.66400000 32.66100000 49.50100000
N  38.41000000 33.34900000 48.48300000
H  37.74700000 34.03100000 48.01900000
C  39.47900000 34.16700000 49.05900000
H  40.24500000 33.54500000 49.53400000
C  38.98700000 32.51000000 47.47900000
H  39.06600000 31.45300000 47.78500000
