cyclohexane
  PyMOL2.5          3D                             0

 34 35  0  0  0  0  0  0  0  0999 V2000
   47.0192   32.2759   39.8907 C   0  0  0  0  0  0  0  0  0  0  0  0
   47.3670   32.5269   42.3658 C   0  0  0  0  0  0  0  0  0  0  0  0
   45.9747   31.1602   40.0547 C   0  0  0  0  0  0  0  0  0  0  0  0
   46.1143   31.9914   43.0777 C   0  0  0  0  0  0  0  0  0  0  0  0
   44.5634   31.7475   40.2168 C   0  0  0  0  0  0  0  0  0  0  0  0
   46.4939   31.2146   44.3487 C   0  0  0  0  0  0  0  0  0  0  0  0
   44.5087   32.7298   41.3979 C   0  0  0  0  0  0  0  0  0  0  0  0
   47.4719   30.0739   44.0247 C   0  0  0  0  0  0  0  0  0  0  0  0
   45.5531   33.8455   41.2338 C   0  0  0  0  0  0  0  0  0  0  0  0
   48.7245   30.6093   43.3127 C   0  0  0  0  0  0  0  0  0  0  0  0
   46.9644   33.2583   41.0717 C   0  0  0  0  0  0  0  0  0  0  0  0
   48.3451   31.3861   42.0417 C   0  0  0  0  0  0  0  0  0  0  0  0
   47.8675   33.2270   43.0346 H   0  0  0  0  0  0  0  0  0  0  0  0
   47.6580   34.0756   40.8737 H   0  0  0  0  0  0  0  0  0  0  0  0
   46.8272   32.8277   38.9391 H   0  0  0  0  0  0  0  0  0  0  0  0
   48.0417   31.8328   39.8098 H   0  0  0  0  0  0  0  0  0  0  0  0
   46.2263   30.5446   40.9518 H   0  0  0  0  0  0  0  0  0  0  0  0
   45.5520   31.3194   42.3855 H   0  0  0  0  0  0  0  0  0  0  0  0
   46.0046   30.4764   39.1715 H   0  0  0  0  0  0  0  0  0  0  0  0
   45.4316   32.8372   43.3368 H   0  0  0  0  0  0  0  0  0  0  0  0
   44.2716   32.2778   39.2784 H   0  0  0  0  0  0  0  0  0  0  0  0
   46.9655   31.9112   45.0831 H   0  0  0  0  0  0  0  0  0  0  0  0
   43.8230   30.9248   40.3698 H   0  0  0  0  0  0  0  0  0  0  0  0
   45.5750   30.8034   44.8334 H   0  0  0  0  0  0  0  0  0  0  0  0
   43.4862   33.1729   41.4787 H   0  0  0  0  0  0  0  0  0  0  0  0
   47.7639   29.5431   44.9635 H   0  0  0  0  0  0  0  0  0  0  0  0
   44.7007   32.1778   42.3494 H   0  0  0  0  0  0  0  0  0  0  0  0
   46.9647   29.3240   43.3709 H   0  0  0  0  0  0  0  0  0  0  0  0
   45.3016   34.4611   40.3368 H   0  0  0  0  0  0  0  0  0  0  0  0
   49.2868   31.2813   44.0049 H   0  0  0  0  0  0  0  0  0  0  0  0
   45.5233   34.5293   42.1170 H   0  0  0  0  0  0  0  0  0  0  0  0
   49.4072   29.7635   43.0536 H   0  0  0  0  0  0  0  0  0  0  0  0
   47.8735   30.6896   41.3073 H   0  0  0  0  0  0  0  0  0  0  0  0
   49.2640   31.7974   41.5570 H   0  0  0  0  0  0  0  0  0  0  0  0
  1  3  1  0  0  0  0
  1 11  1  0  0  0  0
  1 15  1  0  0  0  0
  1 16  1  0  0  0  0
  2  4  1  0  0  0  0
  2 12  1  0  0  0  0
  2 13  1  0  0  0  0
  3  5  1  0  0  0  0
  3 17  1  0  0  0  0
  3 19  1  0  0  0  0
  4  6  1  0  0  0  0
  4 18  1  0  0  0  0
  4 20  1  0  0  0  0
  5  7  1  0  0  0  0
  5 21  1  0  0  0  0
  5 23  1  0  0  0  0
  6  8  1  0  0  0  0
  6 22  1  0  0  0  0
  6 24  1  0  0  0  0
  7  9  1  0  0  0  0
  7 25  1  0  0  0  0
  7 27  1  0  0  0  0
  8 10  1  0  0  0  0
  8 26  1  0  0  0  0
  8 28  1  0  0  0  0
  9 11  1  0  0  0  0
  9 29  1  0  0  0  0
  9 31  1  0  0  0  0
 10 12  1  0  0  0  0
 10 30  1  0  0  0  0
 10 32  1  0  0  0  0
  2 11  1  0  0  0  0
 11 14  1  0  0  0  0
 12 33  1  0  0  0  0
 12 34  1  0  0  0  0
M  END
$$$$
