37
Properties=species:S:1:pos:R:3  pbc="F F F"
C  44.73600000 33.15800000 41.58800000
C  44.16000000 34.12900000 40.50000000
C  43.96900000 33.41300000 39.23400000
C  45.38700000 33.06600000 38.73100000
C  45.99100000 32.27000000 39.75100000
C  46.02800000 32.76800000 41.26400000
H  44.02700000 32.33500000 41.72000000
H  43.12900000 34.40600000 40.87500000
H  44.82700000 34.98100000 40.36700000
H  43.32100000 32.53600000 39.26100000
H  43.59400000 34.13500000 38.48200000
H  45.19300000 32.41700000 37.87700000
H  45.90900000 34.01600000 38.51000000
H  46.72000000 31.53600000 39.51000000
H  45.13100000 31.50800000 39.95100000
H  46.42100000 31.85900000 41.72300000
C  44.55100000 35.89900000 44.30200000
C  44.42400000 35.31400000 43.07700000
C  44.78200000 33.96200000 42.85800000
N  45.24200000 33.31500000 43.90900000
C  45.36800000 33.88300000 45.10600000
N  45.02000000 35.19100000 45.31300000
H  44.23700000 36.92600000 44.30300000
H  44.05300000 35.77500000 42.16300000
H  45.76100000 33.28400000 45.94300000
O  46.94400000 33.85600000 41.21600000
C  48.16600000 33.27400000 41.78700000
H  47.56900000 32.58900000 42.17600000
C  48.95800000 32.32900000 40.84600000
C  50.19700000 31.82700000 41.61800000
C  49.13700000 30.87000000 41.33200000
O  48.97300000 34.32000000 41.34500000
C  49.42600000 35.39100000 41.97100000
O  49.26100000 36.52700000 41.64000000
N  50.14700000 35.10100000 43.10700000
H  50.99900000 35.09400000 43.71700000
H  51.15100000 35.40400000 43.15600000
