36
Properties=species:S:1:pos:R:3  pbc="F F F"
C  44.67700000 33.17800000 41.55700000
C  44.05600000 34.14600000 40.48700000
C  43.84000000 33.40400000 39.22900000
C  45.25100000 33.11800000 38.68100000
C  45.90400000 32.33300000 39.68000000
C  45.96700000 32.81800000 41.19300000
H  44.00400000 32.32400000 41.74200000
H  43.06200000 34.42200000 40.92800000
H  44.70100000 35.01900000 40.42900000
H  43.33300000 34.05800000 38.51300000
H  43.34500000 32.44700000 39.43000000
H  45.07900000 32.47800000 37.82000000
H  45.73500000 34.06400000 38.37300000
H  46.69700000 31.74100000 39.34300000
H  45.11100000 31.50200000 39.89700000
H  46.41800000 31.93600000 41.63400000
C  44.53500000 35.91700000 44.27700000
C  44.38700000 35.33900000 43.06300000
C  44.73500000 33.98200000 42.83000000
N  45.20600000 33.33100000 43.87400000
C  45.35000000 33.90300000 45.07000000
N  45.01400000 35.20700000 45.28300000
H  44.22300000 36.96300000 44.28700000
H  44.00800000 35.81700000 42.16200000
H  45.75000000 33.29900000 45.89600000
O  46.85400000 33.94200000 41.14500000
C  48.07500000 33.33900000 41.78000000
H  47.49200000 32.62400000 42.10100000
O  48.71200000 32.48600000 40.76000000
H  49.61100000 32.29200000 41.02700000
O  48.90200000 34.36800000 41.33100000
C  49.42900000 35.40300000 41.97200000
O  49.30100000 36.54400000 41.66000000
N  50.16800000 35.07400000 43.08200000
H  50.41200000 35.60900000 43.97900000
H  50.71200000 34.96000000 44.00600000
