41
Properties=species:S:1:pos:R:3  pbc="F F F"
C  47.89900000 32.97700000 41.85800000
C  47.63500000 32.17200000 40.64700000
C  48.68000000 32.61900000 39.61900000
C  48.27400000 34.02200000 39.20500000
C  48.15900000 34.97800000 40.35300000
C  47.65300000 34.45400000 41.62600000
H  49.00700000 32.93100000 42.08200000
H  46.62500000 32.22500000 40.24800000
H  47.86200000 31.09900000 40.91200000
H  49.66700000 32.60700000 40.12100000
H  48.60200000 31.97800000 38.74200000
H  47.28700000 33.90800000 38.69700000
H  49.02400000 34.36900000 38.47900000
H  47.53200000 35.83200000 40.02000000
H  49.19200000 35.41500000 40.47100000
H  48.21500000 34.96900000 42.46400000
C  45.53900000 31.11800000 44.14800000
C  46.22100000 31.57800000 43.02300000
C  47.23100000 32.52900000 43.07300000
N  47.53000000 33.00300000 44.29300000
C  46.87600000 32.56800000 45.40200000
N  45.91000000 31.65600000 45.34800000
H  44.77000000 30.37700000 44.00800000
H  45.96600000 31.18600000 42.05000000
H  47.17800000 33.00200000 46.35500000
C  46.24400000 34.80400000 41.87700000
C  45.73900000 35.53200000 42.96400000
C  44.36000000 35.75400000 42.96100000
C  43.61800000 35.25000000 41.91000000
C  44.12900000 34.54000000 40.85600000
N  45.47100000 34.32300000 40.85700000
H  46.44800000 35.83700000 43.67100000
H  43.97200000 36.31200000 43.79300000
H  42.55500000 35.45200000 41.96000000
C  43.21600000 34.05100000 39.78400000
N  42.05500000 34.87200000 39.62800000
H  42.08100000 35.62100000 40.35700000
C  40.82200000 34.11900000 39.82600000
H  40.96900000 33.06500000 39.50900000
C  41.96300000 35.49500000 38.32800000
H  41.90600000 34.68700000 37.58000000
