37
Properties=species:S:1:pos:R:3  pbc="F F F"
C  47.64900000 33.66000000 39.45000000
C  48.42600000 34.51700000 38.65500000
C  48.06200000 34.34600000 37.33500000
C  47.08800000 33.40300000 37.37800000
O  46.84300000 32.99600000 38.61800000
H  49.15800000 35.15800000 39.11400000
H  48.49100000 34.87100000 36.51500000
C  46.38300000 32.89000000 36.18300000
C  46.22200000 31.45200000 35.97600000
C  47.31000000 32.11000000 35.20800000
H  45.74500000 33.65900000 35.70600000
H  46.47500000 30.73500000 36.76800000
H  45.27900000 31.15700000 35.43200000
H  48.35300000 32.00200000 35.51500000
C  48.08300000 32.72800000 32.93000000
O  49.28700000 32.82900000 33.30200000
N  47.01600000 32.40300000 33.80600000
H  47.77700000 32.88800000 31.89100000
H  46.02500000 32.36600000 33.48400000
O  47.60900000 33.43100000 40.85100000
C  47.63600000 34.55500000 41.71400000
O  48.37100000 35.51400000 41.35300000
C  46.83700000 34.47300000 42.88400000
C  45.67800000 35.17800000 42.87500000
C  44.85000000 35.13800000 43.99500000
N  45.24000000 34.39600000 45.04600000
C  46.38600000 33.71100000 45.03000000
N  47.14800000 33.77500000 43.94600000
H  45.35400000 35.77700000 42.03500000
H  43.91400000 35.68800000 44.02400000
C  46.67500000 32.94400000 46.26200000
N  45.55400000 32.06300000 46.51300000
H  44.73600000 32.48500000 46.01000000
C  45.81200000 30.71600000 46.09300000
H  45.03200000 30.42700000 45.35800000
C  45.24600000 32.15500000 47.93100000
H  44.18100000 31.90900000 48.05500000
