34
Properties=species:S:1:pos:R:3  pbc="F F F"
Cl  45.33200000 32.99400000 41.13500000
C  46.72400000 34.03400000 41.02100000
C  47.08500000 34.87300000 42.04000000
C  48.19200000 35.64300000 41.82900000
C  48.91100000 35.60000000 40.69000000
C  48.55500000 34.76300000 39.66900000
C  47.42700000 33.96000000 39.84800000
H  48.51000000 36.32000000 42.60900000
H  49.78800000 36.22100000 40.54200000
H  49.15200000 34.74400000 38.75700000
C  44.50200000 35.77900000 44.66200000
C  45.26800000 35.80000000 43.48900000
C  46.28000000 34.87800000 43.23500000
N  46.45200000 33.96200000 44.22600000
C  45.72800000 33.93400000 45.34800000
N  44.75900000 34.83700000 45.56300000
H  43.75300000 36.55000000 44.73000000
H  45.11200000 36.54100000 42.71100000
H  45.90400000 33.18000000 46.11300000
C  47.02500000 33.05000000 38.75300000
C  47.41500000 31.70900000 38.70400000
S  46.64400000 31.10400000 37.17100000
C  45.88700000 32.83100000 36.82600000
N  46.27700000 33.37100000 37.72000000
N  45.07800000 33.18200000 35.70000000
H  44.17400000 32.73300000 35.43300000
H  45.49300000 33.97700000 35.13000000
C  48.23700000 30.85500000 39.55700000
N  49.64400000 31.07200000 39.31300000
H  50.06000000 30.09400000 39.25000000
C  50.33700000 31.72400000 40.38000000
H  49.71000000 31.85900000 41.27000000
C  49.90700000 31.67900000 38.02900000
H  49.17500000 32.47300000 37.77500000
