46
Properties=species:S:1:pos:R:3  pbc="F F F"
C  47.45600000 32.06300000 47.85000000
C  46.91200000 30.77200000 47.88600000
C  45.93100000 30.49700000 46.99600000
N  45.52300000 31.43700000 46.12800000
C  46.02000000 32.65300000 46.07300000
N  47.00000000 32.95400000 46.95600000
N  45.33100000 29.25800000 46.98400000
C  44.12700000 28.90700000 46.17600000
C  44.00900000 27.41300000 46.24500000
C  44.65000000 27.08600000 47.54900000
C  45.72600000 28.10100000 47.73300000
H  48.25300000 32.33700000 48.55400000
H  44.22400000 29.21900000 45.13900000
H  43.27900000 29.42400000 46.70300000
H  42.93300000 27.08400000 46.29300000
H  44.55600000 26.93200000 45.43100000
H  43.88100000 27.08000000 48.36800000
H  45.08000000 26.05800000 47.55200000
H  45.69000000 28.33000000 48.81900000
H  46.66400000 27.65900000 47.37800000
C  45.73600000 33.80500000 45.18400000
N  44.88100000 34.79200000 45.49000000
C  44.61800000 35.83700000 44.71000000
N  45.23100000 35.96200000 43.50900000
C  46.09800000 35.05000000 43.09400000
C  46.73800000 35.16900000 41.86900000
C  47.63400000 34.24500000 41.43600000
C  47.89300000 33.17300000 42.25500000
C  47.24000000 33.07600000 43.47400000
C  46.33600000 33.98200000 43.94200000
H  43.90000000 36.58400000 45.06300000
H  46.51600000 36.02200000 41.24300000
H  48.11900000 34.36400000 40.47700000
N  47.62000000 31.90200000 44.18600000
H  46.95500000 31.18700000 43.81000000
H  48.34500000 31.68000000 44.89700000
C  48.88200000 32.18100000 41.76000000
N  50.08100000 32.79400000 41.25500000
H  49.82100000 33.60800000 40.67100000
C  50.93400000 31.87900000 40.53900000
H  51.71800000 32.48500000 40.03800000
C  50.89500000 33.30600000 42.35300000
H  51.44800000 32.43500000 42.80200000
N  47.44200000 29.88700000 48.78500000
H  48.13700000 29.19700000 48.42700000
H  47.20300000 29.85100000 49.82300000
