31
Properties=species:S:1:pos:R:3  pbc="F F F"
C  46.89100000 34.85800000 42.03300000
C  48.08000000 35.56000000 42.02600000
C  48.86100000 35.48800000 40.88400000
C  48.46200000 34.75100000 39.81600000
C  47.27600000 34.04400000 39.80400000
C  46.49400000 34.12000000 40.95800000
H  48.42200000 36.15200000 42.85600000
H  49.80400000 36.01400000 40.81200000
H  49.01600000 34.64200000 38.88000000
H  46.84600000 33.42700000 39.03200000
C  44.51800000 35.97000000 44.76200000
C  45.22800000 35.98400000 43.53200000
C  46.09800000 34.96200000 43.26300000
N  46.23300000 33.98200000 44.20400000
C  45.55300000 33.98000000 45.37000000
N  44.69100000 34.97800000 45.65300000
H  43.86500000 36.82100000 44.86200000
H  45.10600000 36.77200000 42.79800000
H  45.67800000 33.19800000 46.09100000
C  43.91600000 33.74300000 40.81300000
O  43.49400000 34.79900000 40.37000000
N  45.26100000 33.44400000 41.09300000
H  45.52400000 32.50000000 41.51200000
O  42.97100000 32.74400000 41.06200000
C  41.64200000 32.96400000 40.62100000
N  40.81400000 33.31200000 41.73500000
H  41.40300000 33.38600000 42.61700000
C  39.80800000 32.30100000 42.01400000
H  39.81900000 31.97400000 43.06600000
C  40.22500000 34.60700000 41.49800000
H  40.12400000 34.73400000 40.38200000
