40
Properties=species:S:1:pos:R:3  pbc="F F F"
C  48.61600000 30.15700000 40.13600000
C  49.12600000 31.36300000 39.89100000
N  48.29100000 32.50800000 39.88900000
C  48.09600000 33.88000000 40.17300000
O  48.83400000 34.83600000 40.57900000
C  46.68300000 33.89100000 39.84000000
C  46.93000000 32.46900000 39.39700000
S  46.06400000 31.19500000 40.32200000
C  47.19700000 29.81000000 40.43600000
H  46.35700000 34.46700000 38.92900000
H  46.90800000 32.33500000 38.29300000
H  46.92600000 28.97500000 39.77900000
H  47.18500000 29.46100000 41.49300000
C  45.82100000 34.09000000 40.99500000
O  44.59500000 33.98000000 41.17000000
N  46.53600000 34.49300000 42.18200000
H  47.54400000 34.66500000 42.39800000
C  44.48500000 36.11200000 44.81900000
C  45.11300000 35.89300000 43.59300000
C  45.86100000 34.74800000 43.40100000
N  45.96300000 33.86900000 44.41000000
C  45.34300000 34.09400000 45.60800000
N  44.61700000 35.21100000 45.78800000
H  43.92900000 37.04500000 44.84700000
H  45.03500000 36.60900000 42.76100000
H  45.43200000 33.37900000 46.41200000
C  49.59600000 29.04500000 40.10100000
H  50.08600000 28.91200000 39.11500000
H  49.15900000 28.08700000 40.44300000
H  50.40100000 29.34800000 40.82300000
C  50.54100000 31.54900000 39.62000000
O  50.99900000 31.75600000 38.46200000
O  51.66500000 31.55800000 40.41700000
C  52.96800000 31.37300000 39.97500000
N  53.46000000 30.14400000 40.56300000
H  54.47100000 30.34300000 40.83100000
C  53.32800000 28.99100000 39.72700000
H  52.99000000 28.07200000 40.26700000
C  52.80300000 29.86700000 41.82800000
H  52.82300000 28.78800000 42.07200000
