23
Properties=species:S:1:pos:R:3  pbc="F F F"
C  42.04300000 33.94500000 41.25300000
O  42.78800000 33.01300000 41.69000000
N  42.70900000 35.21100000 41.25000000
H  42.24500000 36.06400000 40.90300000
C  44.05300000 35.04000000 41.79200000
C  44.41200000 35.31800000 43.08700000
C  45.74700000 35.08300000 43.40800000
N  46.55700000 34.61200000 42.44100000
C  46.16400000 34.35400000 41.18900000
N  44.87200000 34.56600000 40.82200000
H  46.03400000 35.30000000 44.42500000
H  46.89000000 33.97700000 40.48000000
N  43.41400000 35.80600000 43.95200000
H  43.00600000 35.40100000 44.83100000
H  43.05100000 36.73200000 43.61800000
O  40.72500000 33.82200000 40.81200000
C  39.78000000 33.19500000 41.69600000
N  38.51200000 33.00300000 41.08500000
H  37.79600000 33.41000000 41.72900000
C  38.16900000 31.59600000 40.97600000
H  38.17000000 31.19700000 42.02400000
C  38.34100000 33.69100000 39.82500000
H  38.85800000 33.23100000 38.98200000
