46
Properties=species:S:1:pos:R:3  pbc="F F F"
C  45.88300000 32.32900000 46.04800000
C  45.53900000 33.02000000 47.20600000
C  45.72400000 32.49400000 48.49100000
C  46.26400000 31.24900000 48.66200000
C  46.61300000 30.52400000 47.50400000
C  47.09400000 29.27200000 47.71400000
C  47.37900000 28.49800000 46.58600000
C  47.14200000 29.06400000 45.28500000
C  46.65100000 30.34900000 45.24100000
C  46.38200000 31.13700000 46.27000000
H  45.10300000 34.02500000 47.08400000
H  45.44900000 33.04700000 49.36600000
H  46.41900000 30.83100000 49.65100000
H  47.24900000 28.89200000 48.71400000
H  47.76200000 27.51600000 46.82600000
H  47.44400000 28.26100000 44.62900000
C  44.92700000 29.66900000 43.82600000
C  46.26600000 30.22500000 43.85200000
C  46.76000000 30.31000000 42.62100000
C  46.11800000 29.92600000 41.46100000
C  44.85800000 29.40100000 41.45900000
C  44.26500000 29.27700000 42.68200000
H  47.77000000 30.74400000 42.73900000
H  46.70400000 30.08200000 40.56400000
H  44.40800000 29.11800000 40.51900000
O  44.08700000 29.44100000 44.94900000
H  43.97300000 30.14200000 45.68000000
O  42.98900000 28.73300000 42.62200000
C  41.86100000 29.43600000 42.21600000
N  41.32900000 30.26800000 43.25800000
H  42.17000000 30.70600000 43.73300000
C  40.47100000 31.27200000 42.68000000
H  39.42900000 30.91200000 42.63200000
C  40.55600000 29.53600000 44.24500000
H  40.40900000 28.46400000 43.97900000
C  45.27800000 34.03700000 42.78500000
C  46.59500000 34.46400000 42.48700000
C  47.56200000 34.11600000 43.39400000
N  47.14100000 33.42000000 44.44800000
C  45.91800000 33.00500000 44.76100000
N  45.00900000 33.33600000 43.89100000
H  44.47500000 34.28200000 42.10100000
H  46.83100000 35.02600000 41.60700000
N  48.93700000 34.42200000 43.19700000
H  49.57000000 34.15300000 42.40100000
H  49.22100000 34.99000000 44.03100000
