32
Properties=species:S:1:pos:R:3  pbc="F F F"
N  46.87600000 34.62800000 42.29000000
C  48.33300000 34.70000000 42.34400000
C  48.73100000 35.48600000 41.09300000
C  48.36600000 34.70800000 39.85200000
C  47.07700000 33.96300000 39.93600000
C  46.18300000 34.40000000 41.06700000
H  48.69400000 33.65500000 42.30100000
H  48.69800000 35.24100000 43.23200000
H  48.23800000 36.46000000 41.16200000
H  49.83000000 35.61300000 41.10200000
H  48.27200000 35.45300000 39.02000000
H  49.18100000 34.02100000 39.54500000
H  47.30700000 32.88500000 40.14500000
H  46.47500000 33.97700000 39.00900000
H  45.61200000 35.28200000 40.73700000
C  44.48100000 35.91500000 44.83900000
C  45.19800000 35.85100000 43.63100000
C  46.10100000 34.78500000 43.47500000
N  46.21400000 33.89900000 44.49900000
C  45.50400000 34.00100000 45.64300000
N  44.63100000 35.02300000 45.80300000
H  43.82000000 36.78500000 44.82700000
H  45.12800000 36.53300000 42.80900000
H  45.59800000 33.29400000 46.45500000
O  45.24800000 33.35500000 41.24500000
C  43.98200000 33.70000000 40.79600000
N  43.03100000 33.28100000 41.81600000
H  43.04200000 33.86400000 42.66800000
C  43.26000000 31.91100000 42.21500000
H  42.39800000 31.55700000 42.80800000
C  41.70000000 33.31700000 41.21600000
H  41.47600000 32.41500000 40.62100000
