30
Properties=species:S:1:pos:R:3  pbc="F F F"
Cl  45.05300000 32.36400000 39.66700000
C  46.38500000 33.21500000 38.93100000
C  47.25500000 33.93300000 39.71100000
C  48.33700000 34.63300000 39.17200000
C  48.47900000 34.55900000 37.80400000
C  47.61400000 33.84500000 37.02800000
C  46.57600000 33.17600000 37.56100000
H  49.01700000 35.19600000 39.80200000
H  49.31000000 35.09300000 37.37200000
H  47.78700000 33.83200000 35.96400000
C  47.56800000 33.18100000 43.31200000
C  46.65300000 34.07800000 43.89200000
C  45.94300000 34.92600000 43.03600000
N  46.15900000 34.85500000 41.69500000
C  47.05200000 33.97600000 41.16800000
N  47.74800000 33.14700000 41.98100000
H  48.10700000 32.53200000 43.98700000
H  46.47000000 34.14500000 44.95700000
C  44.94200000 35.92400000 43.53200000
F  45.27000000 37.18700000 43.14000000
F  43.69600000 35.60200000 42.99800000
F  44.90400000 35.81000000 44.89900000
C  45.61500000 32.39500000 36.78900000
C  44.47700000 31.83000000 37.32100000
H  44.27500000 31.96500000 38.37500000
C  43.56500000 31.09100000 36.60100000
H  42.68700000 30.67900000 37.11500000
C  43.77900000 30.88700000 35.25300000
C  44.91600000 31.45200000 34.71700000
N  45.75800000 32.15400000 35.45900000
