28
Properties=species:S:1:pos:R:3  pbc="F F F"
C  43.83800000 35.51100000 41.00700000
H  43.99700000 36.58100000 40.95900000
H  44.53000000 35.06700000 40.23800000
N  42.48800000 35.06100000 40.75000000
C  41.48700000 35.45200000 41.55100000
C  40.22000000 34.98900000 41.25600000
C  39.97100000 34.15200000 40.17800000
O  38.80500000 33.77900000 39.98100000
N  41.01600000 33.78000000 39.39100000
C  42.25100000 34.23400000 39.68400000
O  43.17700000 33.84900000 38.91000000
H  41.64200000 36.10300000 42.40000000
H  39.38800000 35.28500000 41.88300000
H  40.85500000 33.15100000 38.57600000
C  44.46000000 35.85900000 43.35100000
C  44.27400000 34.95500000 42.29200000
C  44.52500000 33.63400000 42.57000000
N  44.92700000 33.25900000 43.80700000
C  45.08600000 34.18600000 44.78300000
N  44.86100000 35.51000000 44.59100000
H  44.27600000 36.91400000 43.18400000
H  44.38600000 32.92700000 41.76400000
O  45.50200000 33.83900000 46.07000000
C  46.72600000 33.16500000 46.12000000
O  47.24300000 32.81200000 45.01500000
N  47.32400000 32.90800000 47.38200000
H  48.19200000 33.03100000 47.94100000
H  48.29800000 33.31200000 47.32900000
