31
Properties=species:S:1:pos:R:3  pbc="F F F"
C  42.76100000 35.61400000 41.27400000
C  41.49800000 35.48500000 41.60100000
C  44.87700000 35.80000000 42.55500000
C  43.88300000 35.01400000 41.96200000
C  44.01200000 33.64200000 42.05800000
N  45.09000000 33.12300000 42.71800000
C  46.03400000 33.90600000 43.28000000
N  45.91800000 35.23200000 43.19200000
H  44.74500000 36.88200000 42.46000000
H  43.26800000 32.98300000 41.61600000
C  47.20600000 33.34200000 43.99900000
N  46.95400000 33.09400000 45.40000000
H  47.75500000 33.52900000 45.93100000
C  45.73200000 33.65800000 45.89200000
H  44.91100000 32.91800000 45.82900000
C  47.05300000 31.66600000 45.64000000
H  46.29400000 31.36800000 46.39900000
C  40.37800000 36.12100000 40.86300000
H  40.74000000 37.04400000 40.37900000
H  39.53900000 36.30400000 41.58700000
C  39.82200000 35.20400000 39.82000000
C  40.32900000 35.28200000 38.53100000
C  39.82600000 34.43900000 37.54900000
C  38.82100000 33.52000000 37.84600000
C  38.31900000 33.44400000 39.12700000
C  38.82500000 34.28800000 40.10200000
H  41.12300000 36.01200000 38.31100000
H  40.27000000 34.55600000 36.56900000
H  38.51600000 32.92200000 36.99800000
H  37.53900000 32.71700000 39.31200000
H  38.41900000 34.21600000 41.10000000
