22
Properties=species:S:1:pos:R:3  pbc="F F F"
C  46.70600000 34.88700000 42.66400000
C  47.12800000 33.90500000 43.59100000
C  46.40200000 33.74500000 44.76800000
N  45.31700000 34.55300000 44.95900000
C  44.94500000 35.47200000 44.06200000
N  45.63700000 35.64800000 42.90600000
H  47.25600000 35.03400000 41.74200000
H  44.08000000 36.07900000 44.27800000
O  48.24800000 33.17100000 43.25000000
O  50.74900000 32.95300000 42.41400000
P  49.57800000 33.89400000 42.44600000
O  49.18100000 34.27700000 40.84500000
H  49.79400000 33.86200000 40.19200000
O  50.04600000 35.30600000 43.23600000
H  49.23600000 35.78800000 43.56900000
C  46.80400000 32.72600000 45.73800000
N  46.65700000 33.10400000 47.11600000
H  46.81000000 34.10900000 47.32000000
C  45.37800000 32.71900000 47.69700000
H  45.54600000 32.68000000 48.81300000
C  47.65000000 32.30700000 47.85600000
H  47.38700000 31.25500000 47.59600000
