22
Properties=species:S:1:pos:R:3  pbc="F F F"
C  44.64700000 35.69100000 44.84600000
C  45.23300000 35.88800000 43.58400000
C  46.13900000 34.91700000 43.15700000
N  46.41300000 33.85500000 43.95000000
C  45.82800000 33.69800000 45.16300000
N  44.94200000 34.62500000 45.60600000
H  43.94700000 36.46100000 45.15100000
H  44.99000000 36.74600000 42.98100000
O  46.72200000 35.11400000 41.90100000
O  48.46600000 33.33200000 41.02600000
P  48.36800000 34.71200000 41.67500000
O  49.10200000 35.88600000 40.75200000
H  49.95100000 36.14900000 41.19100000
O  49.08300000 34.59600000 43.21000000
H  49.07100000 33.67000000 43.55600000
C  46.17800000 32.52100000 45.95900000
N  46.19400000 32.84100000 47.36500000
H  46.10600000 33.89000000 47.41900000
C  47.49200000 32.53800000 47.94700000
H  47.49300000 31.55500000 48.45800000
C  45.11300000 32.29700000 48.12300000
H  45.47500000 31.77800000 49.05500000
