41
Properties=species:S:1:pos:R:3  pbc="F F F"
C  43.43400000 34.42500000 40.62200000
O  43.06500000 35.63900000 40.79200000
N  42.39500000 34.00400000 39.69800000
C  42.33700000 34.75100000 38.45700000
C  41.18300000 35.73000000 38.64000000
C  40.12100000 35.02500000 39.47900000
C  40.15000000 33.51500000 39.23200000
C  41.40900000 32.93100000 39.85700000
H  43.25300000 35.33400000 38.25300000
H  42.06200000 34.09500000 37.59600000
H  41.55900000 36.56800000 39.26300000
H  40.77000000 36.08400000 37.67700000
H  39.11500000 35.40000000 39.27100000
H  40.35900000 35.16100000 40.55900000
H  40.18800000 33.37600000 38.11900000
H  39.23200000 33.10400000 39.66700000
H  41.72600000 32.08800000 39.23300000
O  44.50400000 33.77000000 41.17400000
C  45.82900000 34.13400000 41.03800000
C  46.45400000 34.77000000 42.10800000
C  47.79400000 35.12700000 41.94000000
N  48.40900000 34.83500000 40.75200000
C  47.77300000 34.23000000 39.76800000
N  46.47500000 33.87400000 39.90200000
H  48.29800000 35.61800000 42.75100000
H  48.24100000 33.98900000 38.82000000
C  45.71000000 35.03400000 43.32700000
C  45.05400000 36.22700000 43.57300000
C  44.49600000 36.05300000 44.80900000
N  44.79100000 34.82400000 45.29800000
N  45.52100000 34.24200000 44.38100000
H  45.00300000 37.08900000 42.92300000
H  43.88700000 36.77000000 45.37200000
H  44.51300000 34.38100000 46.22300000
C  41.20300000 32.57400000 41.30100000
N  40.63500000 31.24700000 41.43200000
H  39.64400000 31.21400000 41.13300000
C  40.65800000 30.83900000 42.84400000
H  40.45600000 29.76500000 42.94300000
C  41.35500000 30.26400000 40.65300000
H  42.45300000 30.46500000 40.61900000
