39
Properties=species:S:1:pos:R:3  pbc="F F F"
C  48.48700000 31.34700000 48.57800000
C  47.48100000 32.19400000 48.66400000
C  51.22400000 32.18000000 50.85200000
C  51.32400000 30.99800000 51.63700000
C  50.47600000 29.94800000 51.36900000
N  49.60400000 30.11700000 50.37700000
C  49.49800000 31.22700000 49.63200000
N  50.31100000 32.27000000 49.86400000
H  51.83600000 33.06700000 50.96600000
O  50.52500000 28.79900000 52.07100000
C  51.44800000 27.79000000 51.63600000
F  51.95400000 28.13800000 50.37200000
F  52.51400000 27.82500000 52.53100000
F  50.91900000 26.50600000 51.63600000
C  52.32800000 31.16200000 52.70800000
N  51.71700000 31.85000000 53.87000000
H  50.67800000 32.00300000 53.69200000
C  51.79400000 31.03700000 55.06700000
H  52.04500000 31.67900000 55.95600000
C  52.36400000 33.12000000 54.11200000
H  52.67900000 33.19000000 55.19300000
C  46.48100000 32.27700000 47.56800000
H  46.35200000 31.24200000 47.23000000
H  45.48500000 32.58900000 48.01100000
C  46.62500000 32.78000000 45.28500000
O  46.17900000 31.72200000 44.79500000
N  46.82300000 33.22600000 46.58800000
H  47.19300000 34.17400000 46.73500000
Cl  44.87200000 35.10300000 44.36600000
C  46.27700000 34.58700000 43.47400000
C  46.92300000 33.53000000 44.05800000
C  48.07400000 32.98900000 43.47300000
C  48.56900000 33.53000000 42.28700000
C  47.89300000 34.60300000 41.71700000
Cl  48.47400000 35.32200000 40.23200000
C  46.76800000 35.11500000 42.30800000
H  48.66200000 32.18200000 43.81500000
H  49.44900000 33.17200000 41.77300000
H  46.20000000 35.94900000 41.91100000
