42
Properties=species:S:1:pos:R:3  pbc="F F F"
C  46.83700000 33.24700000 43.41000000
O  48.04700000 33.09500000 43.78400000
N  46.29000000 32.60900000 42.22900000
C  45.02700000 31.92100000 42.01900000
C  44.34100000 32.53100000 40.79600000
C  45.17100000 32.27900000 39.56200000
C  46.55400000 31.84400000 39.96100000
C  47.15700000 32.66800000 41.04600000
H  44.36800000 32.23200000 42.88100000
H  45.13000000 30.84100000 41.92200000
H  44.32600000 33.63900000 41.00400000
H  43.30600000 32.17300000 40.70200000
H  44.70200000 31.39200000 39.06200000
H  45.15000000 33.09000000 38.83700000
H  47.19500000 31.85800000 39.07200000
H  46.53000000 30.78700000 40.33400000
H  48.07500000 32.14600000 41.39100000
C  45.48200000 35.25700000 43.61700000
C  45.97800000 34.08300000 44.18900000
C  45.62700000 33.75600000 45.48600000
N  44.81000000 34.59800000 46.15600000
C  44.32500000 35.74200000 45.60400000
N  44.67100000 36.05300000 44.34000000
H  45.70000000 35.58300000 42.62900000
H  43.67200000 36.38100000 46.18700000
C  46.15100000 32.53900000 46.07200000
C  45.70200000 31.32600000 45.64300000
C  46.21000000 30.17900000 46.21000000
C  47.17600000 30.20400000 47.21500000
C  47.59300000 31.46300000 47.60700000
N  47.07600000 32.56000000 47.03400000
H  44.96200000 31.14200000 44.88600000
H  45.89400000 29.18300000 45.91400000
H  47.55800000 29.28900000 47.64300000
H  48.33300000 31.52500000 48.37700000
C  47.52500000 34.06400000 40.69100000
N  48.95400000 34.22800000 40.73000000
H  49.29400000 34.54300000 39.80000000
C  49.64900000 33.02500000 41.08700000
H  50.74200000 33.29100000 41.05800000
C  49.35300000 35.24400000 41.69900000
H  50.42400000 35.05500000 41.92400000
