39
Properties=species:S:1:pos:R:3  pbc="F F F"
C  48.06000000 34.58400000 41.72800000
C  48.86700000 35.84100000 41.40700000
C  49.47000000 34.68800000 42.08600000
H  48.60000000 36.71500000 42.03300000
H  49.04100000 36.10100000 40.35600000
H  50.26400000 34.13800000 41.50200000
H  49.80100000 34.85600000 43.12000000
C  47.67300000 33.78600000 40.51500000
C  48.14500000 34.36800000 39.20100000
C  47.75900000 33.34600000 38.13700000
O  46.37800000 33.41300000 37.97900000
C  45.88300000 32.80500000 39.15800000
C  46.15000000 33.74400000 40.33300000
H  48.06700000 32.76600000 40.64600000
H  47.64500000 35.30300000 38.95100000
H  49.25900000 34.42500000 39.17000000
H  48.30900000 33.49800000 37.19400000
H  48.05600000 32.35000000 38.54900000
H  46.45100000 31.87200000 39.37600000
H  44.80400000 32.57900000 39.06200000
H  45.62000000 33.41100000 41.22300000
H  45.87400000 34.75300000 39.97500000
C  46.14100000 35.78400000 42.78900000
C  47.02200000 34.70500000 42.80000000
C  46.89400000 33.77000000 43.85000000
N  45.93800000 33.96500000 44.78300000
C  45.12100000 35.02500000 44.71600000
N  45.19900000 35.93500000 43.74400000
N  44.09400000 35.27200000 45.67400000
H  46.26200000 36.48400000 41.97100000
H  44.24800000 35.60800000 46.64500000
H  43.06000000 35.13600000 45.49200000
C  47.74000000 32.57900000 43.95200000
N  47.08300000 31.31800000 44.06300000
H  46.12600000 31.39400000 44.47700000
C  46.82600000 30.84000000 42.68900000
H  46.05300000 30.05800000 42.66600000
C  47.76600000 30.27100000 44.73600000
H  47.36500000 29.29500000 44.31900000
