31
Properties=species:S:1:pos:R:3  pbc="F F F"
S  43.41300000 33.84100000 41.50600000
C  40.84800000 32.79500000 41.24500000
C  41.82200000 33.59400000 40.68600000
C  41.61300000 34.24200000 39.46300000
N  40.39800000 34.03300000 38.87100000
C  39.47200000 33.25000000 39.44000000
N  39.67400000 32.63200000 40.60600000
H  41.02500000 32.29800000 42.19400000
H  42.40900000 34.85800000 39.06800000
C  38.20900000 33.14200000 38.64500000
N  38.45000000 32.81700000 37.26900000
H  39.29600000 33.27000000 36.86400000
C  38.56500000 31.35700000 37.13900000
H  38.52400000 30.89000000 38.13400000
C  37.28700000 33.21400000 36.49700000
H  37.48800000 33.27100000 35.40500000
C  43.62800000 35.57900000 41.89900000
H  42.91500000 36.18000000 41.27400000
H  44.67900000 35.84100000 41.70500000
N  43.35100000 35.72600000 43.31800000
H  42.73900000 36.56100000 43.46000000
S  44.76900000 35.90400000 44.26100000
O  45.97000000 35.37400000 43.55600000
H  46.07600000 34.58800000 42.98400000
O  44.92800000 37.39800000 44.51000000
H  44.22600000 37.96700000 44.91500000
O  44.56700000 35.18000000 45.75000000
C  45.34300000 34.04000000 45.88700000
H  44.76600000 33.19700000 45.43800000
H  45.44600000 33.81000000 46.96800000
H  46.31500000 34.08400000 45.36400000
