35
Properties=species:S:1:pos:R:3  pbc="F F F"
C  47.01500000 30.55300000 48.25100000
C  45.56100000 30.78700000 48.40500000
C  44.94400000 29.86800000 47.41600000
O  45.78200000 28.78000000 47.27400000
C  46.94600000 29.03700000 47.92200000
H  47.62300000 30.90300000 47.46900000
H  45.32900000 30.42900000 49.44600000
H  44.02700000 29.41800000 47.90800000
H  44.52400000 30.29200000 46.50400000
H  46.94400000 28.57000000 48.94700000
H  47.83300000 28.68000000 47.40600000
O  45.19600000 32.10000000 48.21400000
O  47.22300000 32.92200000 46.86300000
P  45.74900000 32.64500000 46.74600000
O  45.51800000 31.44200000 45.57500000
H  44.85200000 31.70800000 44.91800000
O  45.01500000 34.11700000 46.27600000
C  44.97400000 36.38300000 43.51000000
C  45.02000000 35.53700000 42.36700000
C  45.06700000 34.15300000 42.60400000
N  45.06500000 33.71700000 43.87900000
C  45.01900000 34.55100000 44.94000000
N  44.97400000 35.88300000 44.74600000
H  45.02100000 35.91900000 41.36000000
H  45.10400000 33.43900000 41.78800000
O  44.93000000 37.73300000 43.27700000
H  45.70900000 38.19900000 42.85400000
O  47.76600000 30.77700000 49.36600000
C  49.02100000 31.16600000 49.38300000
N  49.67100000 30.93000000 50.69000000
H  49.01100000 31.00600000 51.46800000
C  50.20100000 29.55500000 50.71400000
H  49.52700000 28.98100000 50.01500000
C  50.81100000 31.78400000 50.89300000
H  50.59200000 32.75900000 51.32700000
