36
Properties=species:S:1:pos:R:3  pbc="F F F"
C  45.50300000 34.35200000 45.02300000
C  46.37900000 34.11300000 43.93000000
C  47.27600000 33.05200000 44.04000000
N  47.25500000 32.30900000 45.19500000
C  46.40200000 32.58100000 46.20000000
N  45.53400000 33.59400000 46.11400000
N  46.47500000 31.72700000 47.36700000
C  46.14800000 32.29700000 48.63800000
C  45.44500000 31.32700000 49.49600000
C  45.00500000 30.03600000 48.88300000
C  45.99000000 29.43400000 47.93800000
C  46.87100000 30.34400000 47.19100000
H  46.36100000 34.72500000 43.03900000
H  47.97300000 32.80800000 43.25000000
H  45.49300000 33.18700000 48.49400000
H  47.09300000 32.69600000 49.10200000
H  44.56900000 31.77200000 50.01400000
H  46.15900000 31.03700000 50.32300000
H  44.76500000 29.33800000 49.69100000
H  44.05600000 30.22800000 48.32900000
H  45.39100000 28.75700000 47.25900000
H  46.60300000 28.72200000 48.53100000
H  46.84300000 30.08300000 46.11300000
O  44.65200000 35.39600000 44.86100000
C  44.39300000 36.03900000 43.65900000
O  45.08800000 36.97100000 43.16300000
N  43.28900000 35.71900000 42.81800000
H  43.11100000 35.30600000 41.86900000
H  42.28300000 35.87500000 43.06600000
C  48.32500000 30.27800000 47.61400000
N  48.54600000 29.50000000 48.79800000
H  47.71500000 29.09100000 49.23600000
C  49.54000000 28.45400000 48.59900000
H  49.17900000 27.63600000 47.93800000
C  49.14600000 30.41100000 49.77700000
H  48.36900000 31.01000000 50.29400000
