21
Properties=species:S:1:pos:R:3  pbc="F F F"
C  44.90600000 35.35800000 44.06800000
C  44.45400000 34.83600000 42.83900000
C  44.60700000 33.46400000 42.62600000
N  45.17300000 32.71100000 43.59800000
C  45.59600000 33.24200000 44.76600000
N  45.45600000 34.55000000 44.97900000
H  44.02500000 35.51800000 42.14800000
H  44.26300000 33.05600000 41.68500000
C  44.75500000 36.79300000 44.31100000
C  45.40500000 37.64100000 43.53600000
C  45.30800000 39.10900000 43.71300000
H  46.01500000 39.47000000 44.47900000
H  44.27000000 39.40500000 43.97900000
H  45.55800000 39.61900000 42.75800000
C  46.18300000 32.27100000 45.69600000
N  45.26900000 31.81000000 46.72400000
H  44.26900000 31.91000000 46.40900000
C  45.59600000 30.41300000 46.94700000
H  46.71800000 30.35600000 46.98300000
C  45.41800000 32.51400000 47.96100000
H  46.40900000 32.98200000 48.07900000
