40
Properties=species:S:1:pos:R:3  pbc="F F F"
O  47.78300000 34.30200000 41.23400000
C  47.21100000 33.98500000 40.06500000
O  45.92100000 33.94400000 40.16000000
C  47.51500000 33.65200000 38.65400000
C  48.38400000 34.35300000 37.79400000
C  48.47900000 33.82200000 36.53000000
C  47.80000000 32.73500000 36.16400000
S  46.85200000 32.30500000 37.74500000
H  48.93000000 35.23200000 38.09800000
H  49.09400000 34.22200000 35.73400000
C  47.63800000 31.91300000 34.99000000
C  46.81600000 30.79700000 35.01300000
C  46.76300000 30.10500000 33.81100000
C  47.48500000 30.54500000 32.73500000
C  48.28900000 31.65600000 32.75000000
N  48.33500000 32.32800000 33.93700000
H  46.28000000 30.51700000 35.90300000
H  46.13800000 29.22000000 33.75600000
H  47.44800000 30.00900000 31.79400000
H  48.85900000 32.00100000 31.89800000
O  49.61200000 34.38300000 43.04800000
P  48.99000000 33.46400000 42.02500000
O  50.16200000 33.04700000 40.92300000
H  51.09300000 33.18600000 41.24600000
O  48.32500000 32.07400000 42.78800000
C  47.06200000 33.42900000 44.28000000
C  47.57100000 32.18600000 43.95200000
C  47.29900000 31.12100000 44.80600000
N  46.55100000 31.34700000 45.91600000
C  46.07100000 32.57000000 46.20400000
N  46.32300000 33.60300000 45.39400000
H  47.19800000 34.33500000 43.70600000
H  47.69400000 30.15000000 44.55300000
C  45.24900000 32.79900000 47.43300000
N  46.05800000 32.60100000 48.61400000
H  46.00400000 33.44300000 49.25900000
C  45.56600000 31.48500000 49.37700000
H  44.47200000 31.55200000 49.49900000
C  47.44100000 32.41300000 48.24600000
H  48.06800000 32.32200000 49.14700000
