34
Properties=species:S:1:pos:R:3  pbc="F F F"
C  46.07300000 34.71100000 41.74300000
O  47.29800000 35.00100000 41.55700000
C  45.12800000 34.24400000 40.67800000
C  43.81300000 34.61000000 40.53800000
N  43.36500000 33.94800000 39.45100000
C  44.37800000 33.20700000 38.94900000
N  45.48900000 33.38300000 39.70900000
N  44.43900000 32.33200000 37.82100000
H  43.24000000 35.28400000 41.15900000
H  43.90100000 31.48800000 38.12800000
H  44.92200000 32.51800000 36.90500000
C  42.05800000 33.96300000 38.85200000
N  41.36100000 35.20700000 38.93400000
H  41.74800000 35.79200000 39.73200000
C  41.31500000 35.98300000 37.73600000
H  41.54900000 35.47100000 36.80700000
C  39.98300000 34.92500000 39.35800000
H  39.39400000 34.65200000 38.47300000
C  44.99300000 36.05400000 43.48400000
C  45.61600000 34.85700000 43.08500000
C  45.73300000 33.90100000 44.07400000
N  45.28700000 34.08600000 45.32800000
C  44.69100000 35.26400000 45.65900000
N  44.54700000 36.24000000 44.73500000
H  44.87600000 36.84000000 42.74400000
H  44.32700000 35.42600000 46.66600000
C  46.35200000 32.66800000 43.75100000
C  47.62300000 32.18500000 43.77800000
C  47.92800000 30.95900000 43.41100000
C  46.90700000 30.18100000 42.99700000
S  45.44600000 31.26100000 43.14200000
H  48.36800000 32.92600000 44.13900000
H  48.91900000 30.52100000 43.41200000
H  46.91400000 29.09500000 42.63300000
