30
Properties=species:S:1:pos:R:3  pbc="F F F"
C  47.34300000 32.57900000 44.45700000
C  47.84300000 33.09700000 43.25900000
C  47.32400000 34.21300000 42.66800000
C  46.24600000 34.88700000 43.26200000
N  45.49400000 35.98600000 42.97600000
C  44.57000000 36.14200000 43.95300000
N  44.75900000 35.14000000 44.82900000
C  45.77400000 34.35900000 44.43400000
C  46.27300000 33.22800000 45.06800000
H  47.76000000 31.68900000 44.92400000
H  45.73500000 36.50400000 42.10100000
H  43.86100000 36.97300000 43.91000000
H  45.84200000 32.87400000 45.99700000
C  49.84000000 30.50700000 41.60400000
C  51.06500000 31.14400000 41.41000000
C  51.20300000 32.45900000 41.84700000
N  50.12800000 33.06700000 42.44800000
C  48.96200000 32.41700000 42.61600000
N  48.80100000 31.14200000 42.20200000
H  49.69000000 29.47300000 41.27400000
H  51.88700000 30.61400000 40.92700000
H  52.12300000 32.98300000 41.71800000
S  47.96600000 34.87400000 41.14300000
C  47.46200000 33.93300000 39.69300000
N  48.65300000 33.77200000 38.84600000
H  49.49600000 34.22800000 39.26100000
C  48.37300000 34.50400000 37.60700000
H  47.77800000 35.40500000 37.91700000
C  48.98800000 32.40000000 38.61700000
H  48.66700000 31.74100000 39.45700000
