34
Properties=species:S:1:pos:R:3  pbc="F F F"
F  45.04300000 33.40200000 41.15300000
C  46.22200000 33.96700000 40.98100000
C  46.75400000 34.72900000 41.99800000
C  47.99900000 35.36900000 41.91400000
C  48.74300000 35.23200000 40.74200000
C  48.17600000 34.46100000 39.75000000
C  46.97300000 33.83600000 39.81600000
H  48.34300000 35.95400000 42.76900000
H  49.68200000 35.74000000 40.73400000
H  48.87000000 34.43600000 38.90500000
C  45.41800000 34.06900000 45.35300000
C  44.61900000 35.22800000 45.57900000
C  44.55100000 36.23300000 44.56300000
N  45.27200000 36.00000000 43.42500000
C  46.00600000 34.89900000 43.25700000
N  46.07800000 33.94800000 44.20500000
H  44.05400000 35.39800000 46.48600000
H  43.96400000 37.10300000 44.71000000
N  45.47500000 33.11200000 46.37800000
H  46.27500000 33.40700000 47.01000000
H  44.87200000 32.27300000 46.51900000
O  46.51300000 33.09700000 38.76100000
O  47.83300000 34.48200000 36.93000000
P  46.92100000 33.29400000 37.14400000
O  45.47300000 33.49900000 36.25000000
H  45.78900000 33.72800000 35.32200000
O  47.67000000 31.93600000 36.47000000
C  48.51700000 32.28500000 35.44500000
N  47.84600000 32.67400000 34.23100000
H  47.16000000 33.43200000 34.43700000
C  47.07700000 31.53700000 33.74500000
H  46.35500000 31.25500000 34.53700000
C  48.78300000 33.08900000 33.19900000
H  49.83700000 33.05300000 33.54700000
