22
Properties=species:S:1:pos:R:3  pbc="F F F"
O  46.89700000 32.38200000 48.47500000
P  45.83600000 32.48400000 47.39100000
O  44.55900000 33.47000000 47.85200000
H  43.69100000 33.08300000 47.52600000
O  46.57500000 33.05300000 45.99400000
C  44.50600000 35.67200000 44.75900000
C  44.94200000 35.85700000 43.43900000
C  45.99300000 35.03300000 42.98100000
N  46.50700000 34.12300000 43.84500000
C  46.06300000 33.97400000 45.10500000
N  45.07100000 34.74000000 45.56200000
H  43.69100000 36.30600000 45.12400000
H  44.50300000 36.60000000 42.77700000
H  46.36000000 35.14600000 41.96300000
O  45.21800000 30.91700000 47.20400000
C  45.54100000 30.23600000 48.38300000
N  45.93200000 28.87200000 48.13200000
H  46.11800000 28.44200000 49.07800000
C  47.19300000 28.87900000 47.43300000
H  47.16800000 29.42600000 46.48100000
C  44.90900000 28.12700000 47.46400000
H  44.13000000 28.84300000 47.14100000
