42
Properties=species:S:1:pos:R:3  pbc="F F F"
C  48.02500000 34.68700000 41.96200000
C  46.72100000 33.89200000 42.24800000
O  47.26800000 32.68200000 42.55700000
C  48.14500000 32.42300000 41.48400000
C  48.51300000 33.78200000 40.85400000
H  47.78400000 35.70400000 41.64400000
H  46.20400000 33.85200000 41.27300000
H  47.56300000 31.85000000 40.73900000
H  49.05300000 31.87800000 41.79400000
H  49.59800000 33.89300000 40.69500000
C  44.51600000 36.05900000 44.46200000
C  45.18000000 35.67700000 43.29500000
C  45.94500000 34.53100000 43.31700000
N  46.00100000 33.83200000 44.50300000
C  45.35000000 34.22400000 45.61200000
N  44.60300000 35.34400000 45.58600000
H  43.92700000 36.98400000 44.36400000
H  45.18600000 36.16300000 42.34400000
H  45.41000000 33.65800000 46.52600000
O  48.91100000 34.55400000 42.99400000
H  49.78900000 34.20300000 42.70500000
O  47.75500000 33.93600000 39.73200000
C  49.16100000 32.95300000 38.11800000
C  48.44700000 34.31400000 38.58200000
O  47.58500000 34.42800000 37.55800000
C  46.87400000 33.20200000 37.69700000
C  47.97000000 32.19100000 37.55200000
H  49.65100000 32.49900000 38.95800000
H  49.32800000 34.93300000 38.75000000
H  46.40200000 33.11000000 38.69400000
H  46.11100000 33.12300000 36.90700000
H  47.89000000 31.31400000 38.23100000
O  49.96600000 33.31500000 37.04100000
H  49.44900000 33.92700000 36.46300000
O  48.17400000 31.88400000 36.23000000
C  47.16500000 31.14100000 35.69200000
N  46.69000000 31.48800000 34.39700000
H  46.50400000 30.56700000 33.86200000
C  45.41200000 32.18500000 34.37200000
H  45.55200000 33.23700000 34.07200000
C  47.66900000 32.24700000 33.65000000
H  48.68600000 32.00400000 33.98800000
