37
Properties=species:S:1:pos:R:3  pbc="F F F"
C  46.21900000 34.06800000 41.12000000
C  46.94900000 32.79000000 41.00000000
O  46.07000000 31.67200000 41.16500000
C  45.72800000 31.67600000 42.52100000
C  44.79600000 32.83400000 42.81800000
C  44.84900000 33.88700000 41.74300000
H  46.04900000 34.55400000 40.13100000
H  47.31900000 32.62300000 39.95600000
H  46.65000000 31.81100000 43.12900000
H  45.26400000 30.70200000 42.77200000
H  45.06100000 33.28000000 43.78800000
H  44.11600000 33.62200000 40.97600000
O  46.96700000 35.01800000 41.84300000
H  46.76700000 34.94900000 42.80600000
O  43.50100000 32.28300000 42.82500000
H  43.03100000 32.76200000 43.57500000
O  48.01300000 32.59100000 41.92100000
C  51.10600000 30.78500000 41.88000000
C  51.52500000 30.87600000 40.53900000
C  50.71200000 31.57700000 39.64900000
N  49.56600000 32.13400000 40.11800000
C  49.18400000 32.04000000 41.39000000
N  49.95400000 31.36300000 42.28200000
H  52.42400000 30.44200000 40.15800000
H  50.96000000 31.69100000 38.60900000
C  51.98600000 30.02600000 42.82600000
F  52.12400000 30.68200000 44.01000000
F  51.45100000 28.75600000 42.98300000
F  53.23900000 29.81300000 42.19800000
O  44.49700000 35.11700000 42.34600000
C  43.61900000 35.70600000 41.43600000
N  42.53700000 34.84100000 41.06000000
H  42.70600000 33.83500000 41.32500000
C  41.33700000 35.33000000 41.71800000
H  40.40500000 34.94000000 41.26000000
C  42.24300000 34.92700000 39.62600000
H  41.30600000 34.35900000 39.45600000
