38
Properties=species:S:1:pos:R:3  pbc="F F F"
C  46.00700000 32.52800000 38.79000000
C  46.87400000 31.52400000 38.14700000
C  46.24000000 32.67700000 37.36500000
H  44.98800000 32.13100000 39.08300000
H  46.45100000 30.53700000 37.87300000
H  47.95600000 31.48300000 38.30600000
H  47.04600000 33.26600000 36.90900000
C  46.53800000 34.56500000 41.81300000
C  47.74400000 35.12600000 41.45000000
C  48.40900000 34.88000000 40.26700000
C  47.82200000 34.00300000 39.37400000
C  46.62700000 33.46100000 39.75900000
N  46.03500000 33.73100000 40.90500000
H  48.23800000 35.82400000 42.13100000
H  49.35200000 35.34300000 40.02400000
H  48.29300000 33.77300000 38.43800000
C  44.55000000 36.12900000 44.61200000
C  45.12600000 35.98900000 43.34500000
C  45.87400000 34.85800000 43.08700000
N  46.01600000 33.94700000 44.06300000
C  45.44200000 34.10900000 45.29200000
N  44.72000000 35.19900000 45.54100000
H  43.98900000 37.05500000 44.69100000
H  45.03500000 36.69400000 42.54300000
H  45.57200000 33.35700000 46.06200000
O  45.25500000 32.31000000 36.43300000
O  45.60400000 30.59600000 34.57000000
P  45.89000000 32.07000000 34.87400000
O  45.00400000 32.99000000 33.77000000
H  44.82600000 33.86300000 34.21400000
O  47.53100000 32.27900000 34.76300000
C  47.99500000 32.40000000 33.50200000
N  48.70200000 31.32500000 32.90000000
H  49.52000000 31.79800000 32.36300000
C  49.36500000 30.42300000 33.81000000
H  49.09200000 29.36300000 33.63500000
C  48.02200000 30.57500000 31.89200000
H  47.52600000 29.66000000 32.22000000
