28
Properties=species:S:1:pos:R:3  pbc="F F F"
C  46.50400000 34.11000000 41.03600000
C  46.95700000 34.86900000 42.09300000
C  48.14100000 35.53300000 41.90700000
C  48.85800000 35.45500000 40.72800000
C  48.39600000 34.70000000 39.69400000
C  47.20400000 34.01200000 39.83500000
H  48.49800000 36.13700000 42.75100000
H  49.79000000 36.00600000 40.64600000
H  48.91300000 34.60100000 38.74700000
C  44.51100000 35.93800000 44.75300000
C  45.26600000 35.91600000 43.56900000
C  46.17400000 34.91600000 43.29500000
N  46.27500000 33.96000000 44.26300000
C  45.55800000 33.97600000 45.39500000
N  44.67500000 34.96100000 45.64600000
H  43.83800000 36.78400000 44.83000000
H  45.18600000 36.68300000 42.78700000
H  45.65400000 33.20600000 46.15200000
O  45.30200000 33.41600000 41.17800000
H  45.25600000 32.45400000 41.44100000
O  46.64100000 33.20900000 38.83700000
C  46.87300000 33.41100000 37.47200000
N  45.60000000 33.47400000 36.78800000
H  45.45900000 34.43800000 36.37500000
C  45.59200000 32.55000000 35.67000000
H  44.60300000 32.06700000 35.53700000
C  44.48800000 33.20800000 37.67700000
H  43.88200000 32.33000000 37.33900000
