44
Properties=species:S:1:pos:R:3  pbc="F F F"
C  44.84700000 35.19700000 45.02000000
C  44.97900000 35.35600000 43.65100000
C  45.70300000 34.40500000 42.97200000
N  46.23400000 33.38000000 43.70800000
C  46.08100000 33.25900000 45.05700000
N  45.40200000 34.17300000 45.59700000
H  44.29800000 35.88500000 45.65100000
H  44.48500000 36.22300000 43.31600000
C  46.84300000 32.07800000 45.25400000
N  47.14800000 30.83700000 45.31200000
C  48.23700000 30.19300000 45.35100000
N  48.08400000 29.99800000 46.66200000
C  47.15500000 30.73400000 47.33400000
C  46.91900000 30.37200000 48.69000000
C  45.97400000 31.07200000 49.35600000
C  45.23300000 32.09000000 48.83900000
C  45.55000000 32.35400000 47.51100000
C  46.47200000 31.77700000 46.63600000
H  47.89400000 32.58900000 45.40500000
H  46.38500000 30.24800000 44.88100000
H  49.18500000 30.70800000 45.09000000
H  48.30700000 29.21800000 44.78500000
H  48.70900000 29.26500000 47.10400000
H  47.45400000 29.58900000 49.17200000
H  45.80300000 30.77900000 50.40800000
H  44.50500000 32.61500000 49.38300000
H  44.90800000 33.14600000 47.15100000
S  45.93700000 34.52400000 41.18100000
C  47.65100000 34.52700000 40.70100000
C  48.00600000 33.57000000 39.64600000
C  48.12100000 32.25500000 39.66200000
N  48.46900000 31.45300000 38.56300000
C  48.38500000 30.24500000 37.85100000
O  48.07200000 29.03800000 38.10800000
C  48.81900000 30.87400000 36.57800000
H  49.58800000 30.32100000 35.99800000
C  49.35800000 31.93100000 37.51500000
S  48.70300000 33.55500000 36.97000000
C  48.24100000 34.41800000 38.46700000
H  49.11500000 35.09800000 38.71300000
C  47.87400000 31.54100000 40.93400000
O  48.84200000 30.93600000 41.51000000
O  47.45800000 30.94000000 42.09400000
H  47.08600000 31.48200000 42.88500000
