36
Properties=species:S:1:pos:R:3  pbc="F F F"
C  46.51500000 32.29200000 45.11500000
N  46.82400000 31.05100000 45.04900000
C  47.91200000 30.42100000 44.89000000
N  47.92400000 30.12300000 46.19300000
C  47.11100000 30.81200000 47.03600000
C  47.06700000 30.36400000 48.38200000
C  46.24500000 31.02300000 49.22500000
C  45.44500000 32.09400000 48.87900000
C  45.57600000 32.43400000 47.54000000
C  46.35100000 31.90600000 46.50900000
H  47.58100000 32.79600000 45.13100000
H  46.04900000 30.53400000 44.52700000
H  47.96700000 29.54100000 44.21300000
H  48.81700000 31.03200000 44.59700000
H  48.59100000 29.34500000 46.46700000
H  47.65200000 29.54500000 48.73200000
H  46.21900000 30.66900000 50.26900000
H  44.82300000 32.57400000 49.56700000
H  44.90100000 33.25300000 47.33700000
C  44.60400000 35.45900000 45.34500000
C  44.30000000 35.53300000 43.96800000
C  44.76300000 34.50500000 43.14700000
N  45.46500000 33.53000000 43.75300000
C  45.74500000 33.48400000 45.09500000
N  45.29700000 34.44400000 45.78000000
H  44.27200000 36.22900000 46.04100000
H  43.72200000 36.39300000 43.64700000
S  44.37800000 34.60600000 41.42800000
C  45.86500000 34.16100000 40.51800000
C  47.10900000 34.63400000 40.90600000
H  47.18500000 35.28600000 41.77900000
C  48.27200000 34.31000000 40.22800000
H  49.25500000 34.66100000 40.50500000
C  48.17600000 33.49300000 39.13600000
C  46.93900000 33.01700000 38.74100000
N  45.84400000 33.36600000 39.44000000
