37
Properties=species:S:1:pos:R:3  pbc="F F F"
C  46.76400000 32.66400000 45.02700000
N  47.37100000 31.54500000 44.94900000
C  47.37400000 30.31000000 44.73200000
N  47.77700000 30.20100000 46.04000000
C  46.99800000 30.97600000 46.87100000
C  46.79400000 30.45100000 48.18100000
C  45.98300000 31.15100000 48.98700000
C  45.35800000 32.30200000 48.64200000
C  45.64800000 32.70000000 47.33400000
C  46.44300000 32.15500000 46.33000000
H  47.64700000 33.40700000 45.39200000
H  48.22300000 31.79400000 44.28300000
H  46.41200000 29.78800000 44.53800000
H  48.08400000 29.71400000 44.07600000
H  48.59200000 29.58600000 46.36900000
H  47.25500000 29.55200000 48.52800000
H  45.83200000 30.73700000 50.00100000
H  44.73000000 32.80200000 49.32400000
H  45.08200000 33.62000000 47.20400000
C  44.51100000 35.59700000 45.02000000
C  44.17500000 35.53600000 43.65000000
C  44.72800000 34.51000000 42.91000000
N  45.54500000 33.65000000 43.56400000
C  45.86000000 33.72700000 44.89200000
N  45.31400000 34.69100000 45.49600000
H  44.11200000 36.37600000 45.65500000
H  43.50800000 36.30600000 43.28900000
S  44.31000000 34.41400000 41.21100000
Cl  42.58100000 31.79700000 41.88600000
C  41.78300000 33.24600000 41.34800000
C  42.51100000 34.39300000 41.05000000
C  41.83400000 35.52800000 40.62400000
H  42.40400000 36.43700000 40.38800000
C  40.46000000 35.53600000 40.49300000
H  39.97200000 36.43800000 40.16000000
C  39.77000000 34.37600000 40.79900000
C  40.40700000 33.23600000 41.22300000
