cyclohexane
  PyMOL2.5          3D                             0

 34 35  0  0  0  0  0  0  0  0999 V2000
   29.8758   29.5250   46.3223 C   0  0  0  0  0  0  0  0  0  0  0  0
   32.5354   28.1800   45.8073 C   0  0  0  0  0  0  0  0  0  0  0  0
   30.0572   28.0054   46.1789 C   0  0  0  0  0  0  0  0  0  0  0  0
   32.4746   29.7014   46.0173 C   0  0  0  0  0  0  0  0  0  0  0  0
   31.2068   27.6775   45.2125 C   0  0  0  0  0  0  0  0  0  0  0  0
   33.7729   30.2208   46.6559 C   0  0  0  0  0  0  0  0  0  0  0  0
   30.9782   28.3355   43.8424 C   0  0  0  0  0  0  0  0  0  0  0  0
   34.0640   29.4944   47.9789 C   0  0  0  0  0  0  0  0  0  0  0  0
   30.7968   29.8551   43.9857 C   0  0  0  0  0  0  0  0  0  0  0  0
   34.1247   27.9730   47.7690 C   0  0  0  0  0  0  0  0  0  0  0  0
   29.6472   30.1832   44.9521 C   0  0  0  0  0  0  0  0  0  0  0  0
   32.8265   27.4535   47.1304 C   0  0  0  0  0  0  0  0  0  0  0  0
   33.3464   27.9628   45.1122 H   0  0  0  0  0  0  0  0  0  0  0  0
   31.2446   26.5969   45.0746 H   0  0  0  0  0  0  0  0  0  0  0  0
   30.7851   29.9645   46.7986 H   0  0  0  0  0  0  0  0  0  0  0  0
   29.0147   29.7444   46.9996 H   0  0  0  0  0  0  0  0  0  0  0  0
   29.1105   27.5524   45.7975 H   0  0  0  0  0  0  0  0  0  0  0  0
   31.6098   29.9512   46.6781 H   0  0  0  0  0  0  0  0  0  0  0  0
   30.2571   27.5487   47.1789 H   0  0  0  0  0  0  0  0  0  0  0  0
   32.2976   30.2148   45.0408 H   0  0  0  0  0  0  0  0  0  0  0  0
   34.6235   30.0624   45.9499 H   0  0  0  0  0  0  0  0  0  0  0  0
   33.6973   31.3214   46.8333 H   0  0  0  0  0  0  0  0  0  0  0  0
   31.8392   28.1161   43.1650 H   0  0  0  0  0  0  0  0  0  0  0  0
   35.0279   29.8590   48.4105 H   0  0  0  0  0  0  0  0  0  0  0  0
   30.0688   27.8960   43.3661 H   0  0  0  0  0  0  0  0  0  0  0  0
   33.2636   29.7358   48.7192 H   0  0  0  0  0  0  0  0  0  0  0  0
   31.7435   30.3081   44.3671 H   0  0  0  0  0  0  0  0  0  0  0  0
   34.9895   27.7232   47.1083 H   0  0  0  0  0  0  0  0  0  0  0  0
   30.5969   30.3118   42.9857 H   0  0  0  0  0  0  0  0  0  0  0  0
   34.3018   27.4596   48.7455 H   0  0  0  0  0  0  0  0  0  0  0  0
   28.6838   29.8188   44.5208 H   0  0  0  0  0  0  0  0  0  0  0  0
   31.9759   27.6119   47.8363 H   0  0  0  0  0  0  0  0  0  0  0  0
   29.5528   31.2901   45.0714 H   0  0  0  0  0  0  0  0  0  0  0  0
   32.9020   26.3530   46.9530 H   0  0  0  0  0  0  0  0  0  0  0  0
  1  3  1  0  0  0  0
  1 11  1  0  0  0  0
  1 15  1  0  0  0  0
  1 16  1  0  0  0  0
  2  4  1  0  0  0  0
  2 12  1  0  0  0  0
  2 13  1  0  0  0  0
  3  5  1  0  0  0  0
  3 17  1  0  0  0  0
  3 19  1  0  0  0  0
  4  6  1  0  0  0  0
  4 18  1  0  0  0  0
  4 20  1  0  0  0  0
  2  5  1  0  0  0  0
  5  7  1  0  0  0  0
  5 14  1  0  0  0  0
  6  8  1  0  0  0  0
  6 21  1  0  0  0  0
  6 22  1  0  0  0  0
  7  9  1  0  0  0  0
  7 23  1  0  0  0  0
  7 25  1  0  0  0  0
  8 10  1  0  0  0  0
  8 24  1  0  0  0  0
  8 26  1  0  0  0  0
  9 11  1  0  0  0  0
  9 27  1  0  0  0  0
  9 29  1  0  0  0  0
 10 12  1  0  0  0  0
 10 28  1  0  0  0  0
 10 30  1  0  0  0  0
 11 31  1  0  0  0  0
 11 33  1  0  0  0  0
 12 32  1  0  0  0  0
 12 34  1  0  0  0  0
M  END
$$$$
