
     RDKit          3D

 12 12  0  0  0  0  0  0  0  0999 V2000
    3.0946   -0.1287    0.1073 Cl  0  0  0  0  0  0  0  0  0  0  0  0
    1.3431   -0.0558    0.0465 C   0  0  0  0  0  0  0  0  0  0  0  0
    0.6953    1.1828   -0.0346 C   0  0  0  0  0  0  0  0  0  0  0  0
    1.2717    2.0988   -0.0601 H   0  0  0  0  0  0  0  0  0  0  0  0
   -0.7016    1.2402   -0.0829 C   0  0  0  0  0  0  0  0  0  0  0  0
   -1.2019    2.1979   -0.1456 H   0  0  0  0  0  0  0  0  0  0  0  0
   -1.4521    0.0604   -0.0503 C   0  0  0  0  0  0  0  0  0  0  0  0
   -2.5329    0.1053   -0.0878 H   0  0  0  0  0  0  0  0  0  0  0  0
   -0.8060   -1.1775    0.0307 C   0  0  0  0  0  0  0  0  0  0  0  0
    0.5908   -1.2363    0.0791 C   0  0  0  0  0  0  0  0  0  0  0  0
   -1.3871   -2.0903    0.0559 H   0  0  0  0  0  0  0  0  0  0  0  0
    1.0861   -2.1969    0.1418 H   0  0  0  0  0  0  0  0  0  0  0  0
  1  2  1  0
  2  3  2  0
  3  4  1  0
  3  5  1  0
  5  6  1  0
  5  7  2  0
  7  8  1  0
  7  9  1  0
  9 10  2  0
 10  2  1  0
  9 11  1  0
 10 12  1  0
M  END
$$$$
