
     RDKit          3D

 23 25  0  0  0  0  0  0  0  0999 V2000
   -4.5390    0.9736   -0.7524 H   0  0  0  0  0  0  0  0  0  0  0  0
   -3.6090    0.5183   -0.4371 C   0  0  0  0  0  0  0  0  0  0  0  0
   -3.4557   -0.8700   -0.4974 C   0  0  0  0  0  0  0  0  0  0  0  0
   -4.2634   -1.4869   -0.8695 H   0  0  0  0  0  0  0  0  0  0  0  0
   -2.2527   -1.4609   -0.0982 C   0  0  0  0  0  0  0  0  0  0  0  0
   -2.1300   -2.5328   -0.1883 H   0  0  0  0  0  0  0  0  0  0  0  0
   -1.1978   -0.6642    0.3712 C   0  0  0  0  0  0  0  0  0  0  0  0
   -1.3722    0.7285    0.4693 C   0  0  0  0  0  0  0  0  0  0  0  0
   -2.5695    1.3175    0.0474 C   0  0  0  0  0  0  0  0  0  0  0  0
   -2.7082    2.3883    0.1259 H   0  0  0  0  0  0  0  0  0  0  0  0
   -0.1174    1.7308    1.2713 S   0  0  0  0  0  0  0  0  0  0  0  0
    1.2597    0.9156    0.4582 C   0  0  0  0  0  0  0  0  0  0  0  0
    2.3581    1.6677    0.0266 C   0  0  0  0  0  0  0  0  0  0  0  0
    2.3447    2.7474    0.1046 H   0  0  0  0  0  0  0  0  0  0  0  0
    3.4961    1.0233   -0.4671 C   0  0  0  0  0  0  0  0  0  0  0  0
    4.3496    1.6053   -0.7900 H   0  0  0  0  0  0  0  0  0  0  0  0
    3.5402   -0.3727   -0.5270 C   0  0  0  0  0  0  0  0  0  0  0  0
    4.4239   -0.8694   -0.9062 H   0  0  0  0  0  0  0  0  0  0  0  0
    2.4363   -1.1276   -0.1180 C   0  0  0  0  0  0  0  0  0  0  0  0
    2.4656   -2.2062   -0.2077 H   0  0  0  0  0  0  0  0  0  0  0  0
    1.2833   -0.4879    0.3607 C   0  0  0  0  0  0  0  0  0  0  0  0
    0.0916   -1.2485    0.6171 N   0  0  0  0  0  0  0  0  0  0  0  0
    0.1658   -2.2889    0.6896 H   0  0  0  0  0  0  0  0  0  0  0  0
  1  2  1  0
  2  3  2  0
  3  4  1  0
  3  5  1  0
  5  6  1  0
  5  7  2  0
  7  8  1  0
  8  9  2  0
  9 10  1  0
  8 11  1  0
 11 12  1  0
 12 13  2  0
 13 14  1  0
 13 15  1  0
 15 16  1  0
 15 17  2  0
 17 18  1  0
 17 19  1  0
 19 20  1  0
 19 21  2  0
 21 22  1  0
 22 23  1  0
  9  2  1  0
 21 12  1  0
 22  7  1  0
M  END
$$$$
