
     RDKit          3D

 21 22  0  0  0  0  0  0  0  0999 V2000
   -1.2282   -0.5758    1.3956 C   0  0  0  0  0  0  0  0  0  0  0  0
   -1.6363    0.0739    2.1995 H   0  0  0  0  0  0  0  0  0  0  0  0
   -0.9992    0.2369    0.1117 C   0  0  0  0  0  0  0  0  0  0  0  0
   -2.3283    0.8374   -0.3671 C   0  0  0  0  0  0  0  0  0  0  0  0
   -2.1649    1.4697   -1.2661 H   0  0  0  0  0  0  0  0  0  0  0  0
   -0.3728   -0.6595   -0.9844 C   0  0  0  0  0  0  0  0  0  0  0  0
    1.0323   -0.3669   -0.9318 N   0  0  0  0  0  0  0  0  0  0  0  0
    2.1709   -1.0271   -0.2541 C   0  0  0  0  0  0  0  0  0  0  0  0
    2.5600   -2.2160   -0.1178 O   0  0  0  0  0  0  0  0  0  0  0  0
    2.6108    0.2988    0.2742 C   0  0  0  0  0  0  0  0  0  0  0  0
    2.4923    0.3623    1.3775 H   0  0  0  0  0  0  0  0  0  0  0  0
    1.5367    0.8890   -0.4749 C   0  0  0  0  0  0  0  0  0  0  0  0
    0.1821    1.6156    0.5076 S   0  0  0  0  0  0  0  0  0  0  0  0
   -1.9474   -1.4032    1.2128 H   0  0  0  0  0  0  0  0  0  0  0  0
   -0.2705   -1.0121    1.7527 H   0  0  0  0  0  0  0  0  0  0  0  0
   -2.7762    1.4730    0.4268 H   0  0  0  0  0  0  0  0  0  0  0  0
   -3.0482    0.0313   -0.6260 H   0  0  0  0  0  0  0  0  0  0  0  0
   -0.7477   -0.3929   -1.9962 H   0  0  0  0  0  0  0  0  0  0  0  0
   -0.5496   -1.7438   -0.8135 H   0  0  0  0  0  0  0  0  0  0  0  0
    3.6171    0.5806   -0.1035 H   0  0  0  0  0  0  0  0  0  0  0  0
    1.8670    1.5291   -1.3228 H   0  0  0  0  0  0  0  0  0  0  0  0
  1  2  1  0
  1  3  1  0
  3  4  1  0
  4  5  1  0
  3  6  1  0
  6  7  1  0
  7  8  1  0
  8  9  2  0
  8 10  1  0
 10 11  1  0
 10 12  1  0
 12 13  1  0
 13  3  1  0
 12  7  1  0
  1 14  1  0
  1 15  1  0
  4 16  1  0
  4 17  1  0
  6 18  1  0
  6 19  1  0
 10 20  1  0
 12 21  1  0
M  END
$$$$
