
     RDKit          3D

 12 12  0  0  0  0  0  0  0  0999 V2000
   -2.3710    0.7315   -0.0257 H   0  0  0  0  0  0  0  0  0  0  0  0
   -1.3368    0.4124   -0.0145 C   0  0  0  0  0  0  0  0  0  0  0  0
   -1.0255   -0.9515   -0.0152 C   0  0  0  0  0  0  0  0  0  0  0  0
   -1.8189   -1.6877   -0.0270 H   0  0  0  0  0  0  0  0  0  0  0  0
    0.3113   -1.3640   -0.0007 C   0  0  0  0  0  0  0  0  0  0  0  0
    1.3368   -0.4124    0.0145 C   0  0  0  0  0  0  0  0  0  0  0  0
    2.3710   -0.7315    0.0257 H   0  0  0  0  0  0  0  0  0  0  0  0
    1.0255    0.9515    0.0152 C   0  0  0  0  0  0  0  0  0  0  0  0
    1.8189    1.6877    0.0270 H   0  0  0  0  0  0  0  0  0  0  0  0
   -0.3113    1.3640    0.0007 C   0  0  0  0  0  0  0  0  0  0  0  0
    0.5521   -2.4192   -0.0012 H   0  0  0  0  0  0  0  0  0  0  0  0
   -0.5521    2.4192    0.0012 H   0  0  0  0  0  0  0  0  0  0  0  0
  1  2  1  0
  2  3  4  0
  3  4  1  0
  3  5  4  0
  5  6  4  0
  6  7  1  0
  6  8  4  0
  8  9  1  0
  8 10  4  0
 10  2  4  0
  5 11  1  0
 10 12  1  0
M  END
$$$$
