
     RDKit          3D

 16 17  0  0  0  0  0  0  0  0999 V2000
   -2.1012    0.6296    0.1446 C   0  0  0  0  0  0  0  0  0  0  0  0
   -2.0429   -0.7770    0.0208 C   0  0  0  0  0  0  0  0  0  0  0  0
   -2.9581   -1.3544    0.0103 H   0  0  0  0  0  0  0  0  0  0  0  0
   -0.8021   -1.4321   -0.0891 C   0  0  0  0  0  0  0  0  0  0  0  0
   -0.7464   -2.5087   -0.1843 H   0  0  0  0  0  0  0  0  0  0  0  0
    0.3508   -0.6482   -0.0710 C   0  0  0  0  0  0  0  0  0  0  0  0
    1.6242   -1.0652   -0.1616 N   0  0  0  0  0  0  0  0  0  0  0  0
    1.9623   -2.0482   -0.2609 H   0  0  0  0  0  0  0  0  0  0  0  0
    2.3843    0.0523   -0.0979 C   0  0  0  0  0  0  0  0  0  0  0  0
    3.4653    0.0496   -0.1446 H   0  0  0  0  0  0  0  0  0  0  0  0
    1.5876    1.1857    0.0341 C   0  0  0  0  0  0  0  0  0  0  0  0
    0.2928    0.7152    0.0491 C   0  0  0  0  0  0  0  0  0  0  0  0
   -0.9194    1.3934    0.1597 C   0  0  0  0  0  0  0  0  0  0  0  0
   -3.0608    1.1228    0.2283 H   0  0  0  0  0  0  0  0  0  0  0  0
    1.9163    2.2138    0.1086 H   0  0  0  0  0  0  0  0  0  0  0  0
   -0.9527    2.4712    0.2540 H   0  0  0  0  0  0  0  0  0  0  0  0
  1  2  2  0
  2  3  1  0
  2  4  1  0
  4  5  1  0
  4  6  2  0
  6  7  1  0
  7  8  1  0
  7  9  1  0
  9 10  1  0
  9 11  2  0
 11 12  1  0
 12 13  2  0
 13  1  1  0
 12  6  1  0
  1 14  1  0
 11 15  1  0
 13 16  1  0
M  END
$$$$
