
     RDKit          3D

  9  9  0  0  0  0  0  0  0  0999 V2000
    1.9966   -0.9277   -0.9727 H   0  0  0  0  0  0  0  0  0  0  0  0
    1.0277   -0.5817   -0.6385 C   0  0  0  0  0  0  0  0  0  0  0  0
    0.6570    0.7330   -0.4376 C   0  0  0  0  0  0  0  0  0  0  0  0
    1.2610    1.6193   -0.5779 H   0  0  0  0  0  0  0  0  0  0  0  0
   -0.6536    0.6648   -0.0186 C   0  0  0  0  0  0  0  0  0  0  0  0
   -1.2932    1.4984    0.2394 H   0  0  0  0  0  0  0  0  0  0  0  0
   -1.0235   -0.6265    0.0210 N   0  0  0  0  0  0  0  0  0  0  0  0
   -1.9613   -0.9889    0.3015 H   0  0  0  0  0  0  0  0  0  0  0  0
   -0.0107   -1.3907   -0.3532 N   0  0  0  0  0  0  0  0  0  0  0  0
  1  2  1  0
  2  3  1  0
  3  4  1  0
  3  5  2  0
  5  6  1  0
  5  7  1  0
  7  8  1  0
  7  9  1  0
  9  2  2  0
M  END
$$$$
