
     RDKit          3D

 17 18  0  0  0  0  0  0  0  0999 V2000
   -2.3020    0.6512   -0.3229 C   0  0  0  0  0  0  0  0  0  0  0  0
   -3.2053    1.2171   -0.5110 H   0  0  0  0  0  0  0  0  0  0  0  0
   -2.3813   -0.7201   -0.0581 C   0  0  0  0  0  0  0  0  0  0  0  0
   -3.3455   -1.2115   -0.0420 H   0  0  0  0  0  0  0  0  0  0  0  0
   -1.2186   -1.4582    0.1860 C   0  0  0  0  0  0  0  0  0  0  0  0
    0.0294   -0.8249    0.1658 C   0  0  0  0  0  0  0  0  0  0  0  0
    1.1631   -1.5389    0.4026 N   0  0  0  0  0  0  0  0  0  0  0  0
    2.3909   -0.9542    0.3903 C   0  0  0  0  0  0  0  0  0  0  0  0
    3.2721   -1.5515    0.5828 H   0  0  0  0  0  0  0  0  0  0  0  0
    2.5159    0.4130    0.1302 C   0  0  0  0  0  0  0  0  0  0  0  0
    1.3712    1.1741   -0.1169 C   0  0  0  0  0  0  0  0  0  0  0  0
    0.1117    0.5609   -0.1016 C   0  0  0  0  0  0  0  0  0  0  0  0
   -1.0596    1.2935   -0.3453 C   0  0  0  0  0  0  0  0  0  0  0  0
   -1.2899   -2.5194    0.3901 H   0  0  0  0  0  0  0  0  0  0  0  0
    3.4928    0.8788    0.1203 H   0  0  0  0  0  0  0  0  0  0  0  0
    1.4693    2.2341   -0.3185 H   0  0  0  0  0  0  0  0  0  0  0  0
   -1.0142    2.3561   -0.5519 H   0  0  0  0  0  0  0  0  0  0  0  0
  1  2  1  0
  1  3  2  0
  3  4  1  0
  3  5  1  0
  5  6  2  0
  6  7  1  0
  7  8  2  0
  8  9  1  0
  8 10  1  0
 10 11  2  0
 11 12  1  0
 12 13  2  0
 13  1  1  0
 12  6  1  0
  5 14  1  0
 10 15  1  0
 11 16  1  0
 13 17  1  0
M  END
$$$$
