
     RDKit          3D

  5  4  0  0  0  0  0  0  0  0999 V2000
   -0.8861   -0.3451   -0.5713 H   0  0  0  0  0  0  0  0  0  0  0  0
    0.0000    0.0000    0.0000 C   0  0  0  0  0  0  0  0  0  0  0  0
   -0.0380    1.1032    0.1106 H   0  0  0  0  0  0  0  0  0  0  0  0
   -0.0002   -0.4725    1.0037 H   0  0  0  0  0  0  0  0  0  0  0  0
    0.9243   -0.2856   -0.5430 H   0  0  0  0  0  0  0  0  0  0  0  0
  1  2  1  0
  2  3  1  0
  2  4  1  0
  2  5  1  0
M  END
$$$$
