
     RDKit          3D

  8  7  0  0  0  0  0  0  0  0999 V2000
   -1.8978    0.1881   -0.3610 H   0  0  0  0  0  0  0  0  0  0  0  0
   -1.0786   -0.4597   -0.3834 N   0  0  0  0  0  0  0  0  0  0  0  0
   -1.2536   -1.1932    0.3394 H   0  0  0  0  0  0  0  0  0  0  0  0
    0.2978    0.4459    0.1406 S   0  0  0  0  0  0  0  0  0  0  0  0
    0.0173    1.0482    1.4884 O   0  0  0  0  0  0  0  0  0  0  0  0
    0.5852    1.5436   -0.8445 O   0  0  0  0  0  0  0  0  0  0  0  0
    1.6313   -0.5707    0.2548 O   0  0  0  0  0  0  0  0  0  0  0  0
    1.6985   -1.0022   -0.6343 H   0  0  0  0  0  0  0  0  0  0  0  0
  1  2  1  0
  2  3  1  0
  2  4  1  0
  4  5  2  0
  4  6  2  0
  4  7  1  0
  7  8  1  0
M  END
$$$$
