
     RDKit          3D

 13 12  0  0  0  0  0  0  0  0999 V2000
    1.4549   -0.5093    1.4281 O   0  0  0  0  0  0  0  0  0  0  0  0
    1.3559   -0.2166   -0.0525 P   0  0  0  0  0  0  0  0  0  0  0  0
    2.6645   -0.9448   -0.8401 O   0  0  0  0  0  0  0  0  0  0  0  0
    3.4635   -0.4764   -0.4892 H   0  0  0  0  0  0  0  0  0  0  0  0
    1.4284    1.4565   -0.3058 O   0  0  0  0  0  0  0  0  0  0  0  0
   -0.0845   -0.8712   -0.6817 O   0  0  0  0  0  0  0  0  0  0  0  0
   -1.3831    0.0472   -0.0733 P   0  0  0  0  0  0  0  0  0  0  0  0
   -1.3986    1.4142   -0.7203 O   0  0  0  0  0  0  0  0  0  0  0  0
   -1.2778    0.2143    1.6092 O   0  0  0  0  0  0  0  0  0  0  0  0
   -2.8279   -0.7472   -0.4515 O   0  0  0  0  0  0  0  0  0  0  0  0
   -2.7567   -1.6257    0.0001 H   0  0  0  0  0  0  0  0  0  0  0  0
    1.4633    1.5602   -1.2902 H   0  0  0  0  0  0  0  0  0  0  0  0
   -2.1021    0.6988    1.8673 H   0  0  0  0  0  0  0  0  0  0  0  0
  1  2  2  0
  2  3  1  0
  3  4  1  0
  2  5  1  0
  2  6  1  0
  6  7  1  0
  7  8  2  0
  7  9  1  0
  7 10  1  0
 10 11  1  0
  5 12  1  0
  9 13  1  0
M  END
$$$$
