
     RDKit          3D

  8  7  0  0  0  0  0  0  0  0999 V2000
   -1.0935    0.3912    1.0163 H   0  0  0  0  0  0  0  0  0  0  0  0
   -0.7556    0.0777    0.0061 C   0  0  0  0  0  0  0  0  0  0  0  0
    0.7556   -0.0777   -0.0061 C   0  0  0  0  0  0  0  0  0  0  0  0
    1.0935   -0.3912   -1.0163 H   0  0  0  0  0  0  0  0  0  0  0  0
   -1.0609    0.8466   -0.7345 H   0  0  0  0  0  0  0  0  0  0  0  0
   -1.2355   -0.8892   -0.2543 H   0  0  0  0  0  0  0  0  0  0  0  0
    1.0609   -0.8466    0.7345 H   0  0  0  0  0  0  0  0  0  0  0  0
    1.2355    0.8892    0.2543 H   0  0  0  0  0  0  0  0  0  0  0  0
  1  2  1  0
  2  3  1  0
  3  4  1  0
  2  5  1  0
  2  6  1  0
  3  7  1  0
  3  8  1  0
M  END
$$$$
