
     RDKit          3D

  9  8  0  0  0  0  0  0  0  0999 V2000
    1.2735    0.2509    1.2914 H   0  0  0  0  0  0  0  0  0  0  0  0
    1.2735   -0.3172    0.3658 C   0  0  0  0  0  0  0  0  0  0  0  0
    0.1968   -0.3432   -0.4228 C   0  0  0  0  0  0  0  0  0  0  0  0
   -1.0466    0.4080   -0.0606 C   0  0  0  0  0  0  0  0  0  0  0  0
   -1.8179    0.2552   -0.8441 H   0  0  0  0  0  0  0  0  0  0  0  0
    2.1653   -0.8683    0.0859 H   0  0  0  0  0  0  0  0  0  0  0  0
    0.2225   -0.9191   -1.3432 H   0  0  0  0  0  0  0  0  0  0  0  0
   -1.4426    0.0404    0.9097 H   0  0  0  0  0  0  0  0  0  0  0  0
   -0.8246    1.4933    0.0179 H   0  0  0  0  0  0  0  0  0  0  0  0
  1  2  1  0
  2  3  2  0
  3  4  1  0
  4  5  1  0
  2  6  1  0
  3  7  1  0
  4  8  1  0
  4  9  1  0
M  END
$$$$
