
     RDKit          3D

 13 13  0  0  0  0  0  0  0  0999 V2000
    0.5664    2.4287    0.7030 O   0  0  0  0  0  0  0  0  0  0  0  0
    0.3222    1.2425    0.3591 C   0  0  0  0  0  0  0  0  0  0  0  0
   -1.0374    0.6875    0.2188 C   0  0  0  0  0  0  0  0  0  0  0  0
   -1.6012    1.2434   -0.5607 H   0  0  0  0  0  0  0  0  0  0  0  0
   -0.7827   -0.7663   -0.2118 C   0  0  0  0  0  0  0  0  0  0  0  0
   -1.2203   -1.4688    0.5308 H   0  0  0  0  0  0  0  0  0  0  0  0
    0.7451   -0.9630   -0.2948 C   0  0  0  0  0  0  0  0  0  0  0  0
    1.0517   -1.2368   -1.3271 H   0  0  0  0  0  0  0  0  0  0  0  0
    1.3360    0.3086    0.0684 N   0  0  0  0  0  0  0  0  0  0  0  0
   -1.5722    0.7294    1.1919 H   0  0  0  0  0  0  0  0  0  0  0  0
   -1.2490   -0.9605   -1.2024 H   0  0  0  0  0  0  0  0  0  0  0  0
    1.0805   -1.7482    0.4163 H   0  0  0  0  0  0  0  0  0  0  0  0
    2.3610    0.5036    0.1086 H   0  0  0  0  0  0  0  0  0  0  0  0
  1  2  2  0
  2  3  1  0
  3  4  1  0
  3  5  1  0
  5  6  1  0
  5  7  1  0
  7  8  1  0
  7  9  1  0
  9  2  1  0
  3 10  1  0
  5 11  1  0
  7 12  1  0
  9 13  1  0
M  END
$$$$
