
     RDKit          3D

  5  4  0  0  0  0  0  0  0  0999 V2000
    0.0995   -0.1024    1.1550 H   0  0  0  0  0  0  0  0  0  0  0  0
    0.0047   -0.0048    0.0540 C   0  0  0  0  0  0  0  0  0  0  0  0
   -0.6983   -1.0843   -0.4451 F   0  0  0  0  0  0  0  0  0  0  0  0
    1.2629    0.0285   -0.5154 F   0  0  0  0  0  0  0  0  0  0  0  0
   -0.6687    1.1629   -0.2485 F   0  0  0  0  0  0  0  0  0  0  0  0
  1  2  1  0
  2  3  1  0
  2  4  1  0
  2  5  1  0
M  END
$$$$
