
     RDKit          3D

  4  3  0  0  0  0  0  0  0  0999 V2000
    0.9492   -0.1954   -0.0821 H   0  0  0  0  0  0  0  0  0  0  0  0
   -0.0037    0.0066    0.2948 N   0  0  0  0  0  0  0  0  0  0  0  0
   -0.6403   -0.7264   -0.0901 H   0  0  0  0  0  0  0  0  0  0  0  0
   -0.3051    0.9153   -0.1227 H   0  0  0  0  0  0  0  0  0  0  0  0
  1  2  1  0
  2  3  1  0
  2  4  1  0
M  END
$$$$
