
     RDKit          3D

  9  9  0  0  0  0  0  0  0  0999 V2000
    1.3705   -0.3786    0.9520 H   0  0  0  0  0  0  0  0  0  0  0  0
    0.8396   -0.2483   -0.0147 C   0  0  0  0  0  0  0  0  0  0  0  0
   -0.2052    0.8515   -0.0127 C   0  0  0  0  0  0  0  0  0  0  0  0
   -0.6347   -0.6029    0.0274 C   0  0  0  0  0  0  0  0  0  0  0  0
    1.3244   -0.4188   -0.9993 H   0  0  0  0  0  0  0  0  0  0  0  0
   -0.3061    1.3867    0.9552 H   0  0  0  0  0  0  0  0  0  0  0  0
   -0.3521    1.3465   -0.9960 H   0  0  0  0  0  0  0  0  0  0  0  0
   -1.0412   -0.9882   -0.9316 H   0  0  0  0  0  0  0  0  0  0  0  0
   -0.9952   -0.9479    1.0196 H   0  0  0  0  0  0  0  0  0  0  0  0
  1  2  1  0
  2  3  1  0
  3  4  1  0
  4  2  1  0
  2  5  1  0
  3  6  1  0
  3  7  1  0
  4  8  1  0
  4  9  1  0
M  END
$$$$
