
     RDKit          3D

 15 15  0  0  0  0  0  0  0  0999 V2000
   -2.8052    1.3519   -0.3064 H   0  0  0  0  0  0  0  0  0  0  0  0
   -2.3517    0.0610   -0.3882 S   0  0  0  0  0  0  0  0  0  0  0  0
   -3.0570   -0.7681    0.6474 O   0  0  0  0  0  0  0  0  0  0  0  0
   -2.6519   -0.4732   -1.7601 O   0  0  0  0  0  0  0  0  0  0  0  0
   -0.6195    0.0220   -0.1015 C   0  0  0  0  0  0  0  0  0  0  0  0
    0.0780    1.2090    0.1612 C   0  0  0  0  0  0  0  0  0  0  0  0
   -0.4442    2.1570    0.1894 H   0  0  0  0  0  0  0  0  0  0  0  0
    1.4576    1.1753    0.3892 C   0  0  0  0  0  0  0  0  0  0  0  0
    1.9948    2.0928    0.5920 H   0  0  0  0  0  0  0  0  0  0  0  0
    2.1435   -0.0428    0.3554 C   0  0  0  0  0  0  0  0  0  0  0  0
    3.2111   -0.0677    0.5320 H   0  0  0  0  0  0  0  0  0  0  0  0
    1.4504   -1.2286    0.0936 C   0  0  0  0  0  0  0  0  0  0  0  0
    0.0708   -1.1975   -0.1347 C   0  0  0  0  0  0  0  0  0  0  0  0
    1.9818   -2.1711    0.0676 H   0  0  0  0  0  0  0  0  0  0  0  0
   -0.4585   -2.1201   -0.3368 H   0  0  0  0  0  0  0  0  0  0  0  0
  1  2  1  0
  2  3  2  0
  2  4  2  0
  2  5  1  0
  5  6  2  0
  6  7  1  0
  6  8  1  0
  8  9  1  0
  8 10  2  0
 10 11  1  0
 10 12  1  0
 12 13  2  0
 13  5  1  0
 12 14  1  0
 13 15  1  0
M  END
$$$$
