
     RDKit          3D

  9  9  0  0  0  0  0  0  0  0999 V2000
   -1.9315   -0.9811   -1.0584 H   0  0  0  0  0  0  0  0  0  0  0  0
   -0.9901   -0.6126   -0.6733 C   0  0  0  0  0  0  0  0  0  0  0  0
   -0.6330    0.7127   -0.5401 C   0  0  0  0  0  0  0  0  0  0  0  0
   -1.2305    1.5772   -0.7964 H   0  0  0  0  0  0  0  0  0  0  0  0
    0.6403    0.7108   -0.0138 C   0  0  0  0  0  0  0  0  0  0  0  0
    1.2466    1.5735    0.2274 H   0  0  0  0  0  0  0  0  0  0  0  0
    0.9839   -0.6156    0.1426 C   0  0  0  0  0  0  0  0  0  0  0  0
    1.9215   -0.9868    0.5341 H   0  0  0  0  0  0  0  0  0  0  0  0
   -0.0070   -1.3781   -0.2587 O   0  0  0  0  0  0  0  0  0  0  0  0
  1  2  1  0
  2  3  2  0
  3  4  1  0
  3  5  1  0
  5  6  1  0
  5  7  2  0
  7  8  1  0
  7  9  1  0
  9  2  1  0
M  END
$$$$
