
     RDKit          3D

  8  7  0  0  0  0  0  0  0  0999 V2000
    0.5616   -0.0368    1.7078 O   0  0  0  0  0  0  0  0  0  0  0  0
   -0.0027    0.0237    0.3066 P   0  0  0  0  0  0  0  0  0  0  0  0
   -0.4677    1.6123   -0.0427 O   0  0  0  0  0  0  0  0  0  0  0  0
   -1.3505   -0.9934    0.1970 O   0  0  0  0  0  0  0  0  0  0  0  0
    1.1751   -0.4787   -0.7999 O   0  0  0  0  0  0  0  0  0  0  0  0
    1.8896    0.2043   -0.7358 H   0  0  0  0  0  0  0  0  0  0  0  0
   -0.8149    1.5741   -0.9695 H   0  0  0  0  0  0  0  0  0  0  0  0
   -0.9906   -1.9056    0.3364 H   0  0  0  0  0  0  0  0  0  0  0  0
  1  2  2  0
  2  3  1  0
  2  4  1  0
  2  5  1  0
  5  6  1  0
  3  7  1  0
  4  8  1  0
M  END
$$$$
