
     RDKit          3D

 14 14  0  0  0  0  0  0  0  0999 V2000
    2.1179   -1.0464   -0.0808 O   0  0  0  0  0  0  0  0  0  0  0  0
    0.8356   -0.5021   -0.0314 C   0  0  0  0  0  0  0  0  0  0  0  0
   -0.2856   -1.3429    0.0379 C   0  0  0  0  0  0  0  0  0  0  0  0
   -0.1609   -2.4182    0.0534 H   0  0  0  0  0  0  0  0  0  0  0  0
   -1.5716   -0.7974    0.0874 C   0  0  0  0  0  0  0  0  0  0  0  0
   -2.4341   -1.4493    0.1408 H   0  0  0  0  0  0  0  0  0  0  0  0
   -1.7446    0.5889    0.0680 C   0  0  0  0  0  0  0  0  0  0  0  0
   -0.6317    1.4321   -0.0009 C   0  0  0  0  0  0  0  0  0  0  0  0
    0.6599    0.8937   -0.0508 C   0  0  0  0  0  0  0  0  0  0  0  0
    1.7525    1.7574   -0.1192 O   0  0  0  0  0  0  0  0  0  0  0  0
    2.2698   -2.0482   -0.0680 H   0  0  0  0  0  0  0  0  0  0  0  0
   -2.7408    1.0102    0.1064 H   0  0  0  0  0  0  0  0  0  0  0  0
   -0.7723    2.5054   -0.0156 H   0  0  0  0  0  0  0  0  0  0  0  0
    2.7057    1.4167   -0.1572 H   0  0  0  0  0  0  0  0  0  0  0  0
  1  2  1  0
  2  3  2  0
  3  4  1  0
  3  5  1  0
  5  6  1  0
  5  7  2  0
  7  8  1  0
  8  9  2  0
  9 10  1  0
  9  2  1  0
  1 11  1  0
  7 12  1  0
  8 13  1  0
 10 14  1  0
M  END
$$$$
