
     RDKit          3D

 12 12  0  0  0  0  0  0  0  0999 V2000
    3.0149    0.6175    0.1640 Cl  0  0  0  0  0  0  0  0  0  0  0  0
    1.2925    0.2761    0.0704 C   0  0  0  0  0  0  0  0  0  0  0  0
    0.3895    1.3460    0.0294 C   0  0  0  0  0  0  0  0  0  0  0  0
    0.7522    2.3657    0.0553 H   0  0  0  0  0  0  0  0  0  0  0  0
   -0.9853    1.1038   -0.0451 C   0  0  0  0  0  0  0  0  0  0  0  0
   -1.6798    1.9334   -0.0765 H   0  0  0  0  0  0  0  0  0  0  0  0
   -1.4634   -0.2086   -0.0790 C   0  0  0  0  0  0  0  0  0  0  0  0
   -2.5280   -0.3951   -0.1367 H   0  0  0  0  0  0  0  0  0  0  0  0
   -0.5674   -1.2809   -0.0384 C   0  0  0  0  0  0  0  0  0  0  0  0
   -0.9457   -2.2950   -0.0651 H   0  0  0  0  0  0  0  0  0  0  0  0
    0.8112   -1.0452    0.0362 C   0  0  0  0  0  0  0  0  0  0  0  0
    1.9092   -2.4177    0.0855 Cl  0  0  0  0  0  0  0  0  0  0  0  0
  1  2  1  0
  2  3  2  0
  3  4  1  0
  3  5  1  0
  5  6  1  0
  5  7  2  0
  7  8  1  0
  7  9  1  0
  9 10  1  0
  9 11  2  0
 11 12  1  0
 11  2  1  0
M  END
$$$$
