
     RDKit          3D

 11 10  0  0  0  0  0  0  0  0999 V2000
    0.0275    1.5585   -0.0425 H   0  0  0  0  0  0  0  0  0  0  0  0
    0.0201    0.4975   -0.3733 C   0  0  0  0  0  0  0  0  0  0  0  0
   -1.2665   -0.1695    0.1035 C   0  0  0  0  0  0  0  0  0  0  0  0
    1.2511   -0.2118    0.1826 C   0  0  0  0  0  0  0  0  0  0  0  0
    0.0546    0.4759   -1.4839 H   0  0  0  0  0  0  0  0  0  0  0  0
   -1.3022   -1.2264   -0.2367 H   0  0  0  0  0  0  0  0  0  0  0  0
   -2.1419    0.3688   -0.3172 H   0  0  0  0  0  0  0  0  0  0  0  0
   -1.3294   -0.1382    1.2122 H   0  0  0  0  0  0  0  0  0  0  0  0
    1.2453   -0.1815    1.2931 H   0  0  0  0  0  0  0  0  0  0  0  0
    1.2725   -1.2697   -0.1558 H   0  0  0  0  0  0  0  0  0  0  0  0
    2.1687    0.2963   -0.1818 H   0  0  0  0  0  0  0  0  0  0  0  0
  1  2  1  0
  2  3  1  0
  2  4  1  0
  2  5  1  0
  3  6  1  0
  3  7  1  0
  3  8  1  0
  4  9  1  0
  4 10  1  0
  4 11  1  0
M  END
$$$$
