
     RDKit          3D

  4  3  0  0  0  0  0  0  0  0999 V2000
    0.0517    0.1388   -0.0894 H   0  0  0  0  0  0  0  0  0  0  0  0
   -0.1844   -0.4955    0.7578 C   0  0  0  0  0  0  0  0  0  0  0  0
    0.0517    0.1388   -0.0894 H   0  0  0  0  0  0  0  0  0  0  0  0
    0.0811    0.2178   -0.1949 O   0  0  0  0  0  0  0  0  0  0  0  0
  1  2  1  0
  2  3  1  0
  2  4  2  0
M  END
$$$$
